BEGIN Configuration File: meshcmp.cfg
//
// Flow control
//

channel_width = 128;

watch_out = -;
watch_flits = {76384};
//watch_packets = {76384};

num_vcs     = 4;
vc_buf_size = 6;

wait_for_tail_credit = 0;


vc_allocator = select; 
sw_allocator = select;
alloc_iters  = 1;

credit_delay   = 0;
routing_delay  = 1; //0;
vc_alloc_delay = 1;
sw_alloc_delay = 1;
st_final_delay = 1;

input_speedup     = 1;
output_speedup    = 1;
internal_speedup  = 1.0;


// Traffic
sim_type = throughput;

injection_rate_uses_flits = 1;
injection_rate = 0.08; 

warmup_periods = 10;
sample_period  = 1000;  
sim_count          = 1;
max_samples = 100;

topology = mesh;
k  = 8;
n  = 2;

// Routing
routing_function = flov; //dor;
priority = none;

off_percentile = 20;

//mem_cycle_on = 1; reply_from_MC_only = 1; request_from_MC = 0; // GPU network
mem_cycle_on = 0; reply_from_MC_only = 0; request_from_MC = 1; // CMP network

request_yx = 0; reply_yx = 0; // XY routing
//request_yx = 1; reply_yx = 1; // YX routing
//request_yx = 0; reply_yx = 1; // XY-YX routing

//speculative = 1;

packet_size = 4;

//use_read_write = {1}; // 1;
//write_fraction = 0.1;

traffic       = tornado;
latency_thres = 2000.0;

// Jiayi
//injection_process = on_off;

read_request_size = 1;
write_request_size = 3;
read_reply_size = 5;
write_reply_size = 1;

read_request_begin_vc = 0;
read_request_end_vc = 1;
write_request_begin_vc = 0;
write_request_end_vc = 1;
read_reply_begin_vc = 2;
read_reply_end_vc = 3;
write_reply_begin_vc = 2;
write_reply_end_vc = 3;


// Jiayi, Power
sim_power = 1;
power_output_file = power_output.txt;
tech_file = ./power/techfile.txt;

dsent_model = 1;

// 45 nm technology node
// default in booksim_config.cpp is 22 nm,
// to use 22 nm para, comment out belows
//energy_per_buffwrite = 8.54372e-13;
//energy_per_buffread = 6.83154e-13;
//energy_traverse_xbar = 5.47529e-13;
//energy_per_arbitratestage1 = 1.38384e-14;
//energy_per_arbitratestage2 = 1.3333e-13;
//energy_distribute_clk = 3.16999e-13;
//energy_rr_link_traversal = 1.29159e-12;
//energy_rs_link_traversal = 3.63293e-14;
//input_leak = 0.000628598;
//switch_leak = 0.000277782;
//xbar_leak = 0.000422101;
//xbar_sel_dff_leak = 2.44238e-05;
//clk_tree_leak = 7.59597e-06;
//pipeline_reg0_leak = 1.62825e-06;
//pipeline_reg1_leak = 1.62825e-06;
//pipeline_reg2_part_leak = 1.62825e-06;
//rr_link_leak = 1.38678e-05;
//rs_link_leak = 1.3868e-05;

// 32 nm for cmp
energy_per_buffwrite = 3.38124e-12;
energy_per_buffread = 3.1597e-12;
energy_traverse_xbar = 1.19228e-12;
energy_per_arbitratestage1 = 4.48458e-14;
energy_per_arbitratestage2 = 7.3377e-14;
energy_distribute_clk = 5.35297e-13;
energy_rr_link_traversal = 4.14666e-12;
energy_rs_link_traversal = 7.9628124e-14;
input_leak = 0.00619607;
switch_leak = 0.000339912;
xbar_leak = 0.00139742;
xbar_sel_dff_leak = 2.10918e-05;
clk_tree_leak = 1.61952e-05;
pipeline_reg0_leak = 1.40612e-06;
pipeline_reg1_leak = 1.40612e-06;
pipeline_reg2_part_leak = 1.40612e-06;
rr_link_leak = 4.436417e-05;
rs_link_leak = 4.436417e-05;

END Configuration File: meshcmp.cfg
Class 0:
Packet latency average = 20.4444
	minimum = 10
	maximum = 37
Network latency average = 20.2959
	minimum = 10
	maximum = 37
Slowest packet = 672
Flit latency average = 16.8967
	minimum = 7
	maximum = 34
Slowest flit = 2691
Fragmentation average = 0.771739
	minimum = 0
	maximum = 9
Injected packet rate average = 0.0132344
	minimum = 0 (at node 1)
	maximum = 0.028 (at node 59)
Accepted packet rate average = 0.0129375
	minimum = 0 (at node 0)
	maximum = 0.095 (at node 47)
Injected flit rate average = 0.0528438
	minimum = 0 (at node 1)
	maximum = 0.112 (at node 59)
Accepted flit rate average= 0.0519063
	minimum = 0 (at node 0)
	maximum = 0.383 (at node 47)
Injected packet length average = 3.99292
Accepted packet length average = 4.01208
Total in-flight flits = 66 (0 measured)
latency change    = 1
throughput change = 1
Class 0:
Packet latency average = 20.3955
	minimum = 10
	maximum = 46
Network latency average = 20.2629
	minimum = 10
	maximum = 43
Slowest packet = 1310
Flit latency average = 16.8765
	minimum = 7
	maximum = 40
Slowest flit = 5243
Fragmentation average = 0.769231
	minimum = 0
	maximum = 10
Injected packet rate average = 0.0131094
	minimum = 0 (at node 1)
	maximum = 0.027 (at node 58)
Accepted packet rate average = 0.0128984
	minimum = 0 (at node 0)
	maximum = 0.083 (at node 47)
Injected flit rate average = 0.0523672
	minimum = 0 (at node 1)
	maximum = 0.108 (at node 58)
Accepted flit rate average= 0.0516875
	minimum = 0 (at node 0)
	maximum = 0.332 (at node 47)
Injected packet length average = 3.99464
Accepted packet length average = 4.00727
Total in-flight flits = 96 (0 measured)
latency change    = 0.00239889
throughput change = 0.00423216
Class 0:
Packet latency average = 20.2826
	minimum = 10
	maximum = 39
Network latency average = 20.1222
	minimum = 10
	maximum = 36
Slowest packet = 2049
Flit latency average = 16.6945
	minimum = 7
	maximum = 33
Slowest flit = 8199
Fragmentation average = 0.802395
	minimum = 0
	maximum = 11
Injected packet rate average = 0.0128125
	minimum = 0 (at node 1)
	maximum = 0.03 (at node 34)
Accepted packet rate average = 0.0130469
	minimum = 0 (at node 0)
	maximum = 0.087 (at node 63)
Injected flit rate average = 0.0513438
	minimum = 0 (at node 1)
	maximum = 0.12 (at node 34)
Accepted flit rate average= 0.0521094
	minimum = 0 (at node 0)
	maximum = 0.348 (at node 63)
Injected packet length average = 4.00732
Accepted packet length average = 3.99401
Total in-flight flits = 41 (0 measured)
latency change    = 0.00556551
throughput change = 0.00809595
Class 0:
Packet latency average = 20.0388
	minimum = 10
	maximum = 39
Network latency average = 19.9068
	minimum = 10
	maximum = 36
Slowest packet = 2049
Flit latency average = 16.5377
	minimum = 7
	maximum = 33
Slowest flit = 8199
Fragmentation average = 0.709677
	minimum = 0
	maximum = 11
Injected packet rate average = 0.0130391
	minimum = 0 (at node 1)
	maximum = 0.0275 (at node 58)
Accepted packet rate average = 0.0130781
	minimum = 0 (at node 0)
	maximum = 0.0805 (at node 63)
Injected flit rate average = 0.0521797
	minimum = 0 (at node 1)
	maximum = 0.11 (at node 58)
Accepted flit rate average= 0.05225
	minimum = 0 (at node 0)
	maximum = 0.322 (at node 63)
Injected packet length average = 4.0018
Accepted packet length average = 3.99522
Total in-flight flits = 84 (0 measured)
latency change    = 0.0121667
throughput change = 0.00269139
Class 0:
Packet latency average = 20.1983
	minimum = 10
	maximum = 34
Network latency average = 20.0373
	minimum = 10
	maximum = 34
Slowest packet = 3512
Flit latency average = 16.6808
	minimum = 7
	maximum = 31
Slowest flit = 14051
Fragmentation average = 0.691106
	minimum = 0
	maximum = 13
Injected packet rate average = 0.012875
	minimum = 0 (at node 1)
	maximum = 0.03 (at node 32)
Accepted packet rate average = 0.013
	minimum = 0 (at node 0)
	maximum = 0.1 (at node 47)
Injected flit rate average = 0.0514844
	minimum = 0 (at node 1)
	maximum = 0.119 (at node 32)
Accepted flit rate average= 0.0519844
	minimum = 0 (at node 0)
	maximum = 0.399 (at node 47)
Injected packet length average = 3.99879
Accepted packet length average = 3.9988
Total in-flight flits = 53 (0 measured)
latency change    = 0.00789611
throughput change = 0.00510971
Class 0:
Packet latency average = 19.9386
	minimum = 10
	maximum = 34
Network latency average = 19.7923
	minimum = 10
	maximum = 34
Slowest packet = 3512
Flit latency average = 16.4363
	minimum = 7
	maximum = 31
Slowest flit = 14051
Fragmentation average = 0.698078
	minimum = 0
	maximum = 13
Injected packet rate average = 0.0125391
	minimum = 0 (at node 1)
	maximum = 0.026 (at node 57)
Accepted packet rate average = 0.0126016
	minimum = 0 (at node 0)
	maximum = 0.0875 (at node 47)
Injected flit rate average = 0.0501562
	minimum = 0 (at node 1)
	maximum = 0.104 (at node 57)
Accepted flit rate average= 0.0504062
	minimum = 0 (at node 0)
	maximum = 0.3505 (at node 47)
Injected packet length average = 4
Accepted packet length average = 4
Total in-flight flits = 52 (0 measured)
latency change    = 0.0130247
throughput change = 0.0313081
Class 0:
Packet latency average = 19.9312
	minimum = 10
	maximum = 35
Network latency average = 19.8051
	minimum = 10
	maximum = 33
Slowest packet = 4945
Flit latency average = 16.4301
	minimum = 7
	maximum = 30
Slowest flit = 20467
Fragmentation average = 0.73979
	minimum = 0
	maximum = 10
Injected packet rate average = 0.0133906
	minimum = 0 (at node 1)
	maximum = 0.029 (at node 0)
Accepted packet rate average = 0.0133906
	minimum = 0 (at node 0)
	maximum = 0.081 (at node 47)
Injected flit rate average = 0.053625
	minimum = 0 (at node 1)
	maximum = 0.116 (at node 0)
Accepted flit rate average= 0.0535469
	minimum = 0 (at node 0)
	maximum = 0.322 (at node 47)
Injected packet length average = 4.00467
Accepted packet length average = 3.99883
Total in-flight flits = 53 (0 measured)
latency change    = 0.000374714
throughput change = 0.0586519
Class 0:
Packet latency average = 20.0079
	minimum = 10
	maximum = 36
Network latency average = 19.8663
	minimum = 10
	maximum = 36
Slowest packet = 6500
Flit latency average = 16.5301
	minimum = 7
	maximum = 33
Slowest flit = 26003
Fragmentation average = 0.678419
	minimum = 0
	maximum = 10
Injected packet rate average = 0.0128984
	minimum = 0 (at node 1)
	maximum = 0.0255 (at node 44)
Accepted packet rate average = 0.0128516
	minimum = 0 (at node 0)
	maximum = 0.078 (at node 47)
Injected flit rate average = 0.0516328
	minimum = 0 (at node 1)
	maximum = 0.102 (at node 44)
Accepted flit rate average= 0.0514219
	minimum = 0 (at node 0)
	maximum = 0.311 (at node 47)
Injected packet length average = 4.00303
Accepted packet length average = 4.00122
Total in-flight flits = 74 (0 measured)
latency change    = 0.00383586
throughput change = 0.0413248
Class 0:
Packet latency average = 20.254
	minimum = 10
	maximum = 42
Network latency average = 20.1557
	minimum = 10
	maximum = 40
Slowest packet = 6971
Flit latency average = 16.7599
	minimum = 7
	maximum = 37
Slowest flit = 27887
Fragmentation average = 0.742217
	minimum = 0
	maximum = 13
Injected packet rate average = 0.0124688
	minimum = 0 (at node 1)
	maximum = 0.031 (at node 51)
Accepted packet rate average = 0.0125469
	minimum = 0 (at node 0)
	maximum = 0.078 (at node 47)
Injected flit rate average = 0.0498281
	minimum = 0 (at node 1)
	maximum = 0.124 (at node 51)
Accepted flit rate average= 0.0501719
	minimum = 0 (at node 0)
	maximum = 0.312 (at node 47)
Injected packet length average = 3.99624
Accepted packet length average = 3.99875
Total in-flight flits = 55 (0 measured)
latency change    = 0.0121529
throughput change = 0.0249144
Class 0:
Packet latency average = 20.2997
	minimum = 10
	maximum = 42
Network latency average = 20.1807
	minimum = 10
	maximum = 40
Slowest packet = 6971
Flit latency average = 16.7802
	minimum = 7
	maximum = 37
Slowest flit = 27887
Fragmentation average = 0.770997
	minimum = 0
	maximum = 13
Injected packet rate average = 0.0128828
	minimum = 0 (at node 1)
	maximum = 0.0265 (at node 24)
Accepted packet rate average = 0.0129297
	minimum = 0 (at node 0)
	maximum = 0.0865 (at node 63)
Injected flit rate average = 0.0514766
	minimum = 0 (at node 1)
	maximum = 0.1045 (at node 24)
Accepted flit rate average= 0.0516719
	minimum = 0 (at node 0)
	maximum = 0.3455 (at node 63)
Injected packet length average = 3.99576
Accepted packet length average = 3.99637
Total in-flight flits = 56 (0 measured)
latency change    = 0.00224883
throughput change = 0.0290293
Warmed up ...Time used is 10000 cycles
Class 0:
Packet latency average = 19.9425
	minimum = 10
	maximum = 38
Network latency average = 19.8225
	minimum = 10
	maximum = 38
Slowest packet = 8705
Flit latency average = 16.4908
	minimum = 7
	maximum = 35
Slowest flit = 34823
Fragmentation average = 0.7325
	minimum = 0
	maximum = 9
Injected packet rate average = 0.0127969
	minimum = 0 (at node 1)
	maximum = 0.028 (at node 47)
Accepted packet rate average = 0.0127187
	minimum = 0 (at node 0)
	maximum = 0.082 (at node 47)
Injected flit rate average = 0.0513125
	minimum = 0 (at node 1)
	maximum = 0.112 (at node 47)
Accepted flit rate average= 0.0509375
	minimum = 0 (at node 0)
	maximum = 0.329 (at node 47)
Injected packet length average = 4.00977
Accepted packet length average = 4.00491
Total in-flight flits = 72 (72 measured)
latency change    = 0.0179114
throughput change = 0.0144172
Class 0:
Packet latency average = 20.0588
	minimum = 10
	maximum = 38
Network latency average = 19.9203
	minimum = 10
	maximum = 38
Slowest packet = 8705
Flit latency average = 16.5547
	minimum = 7
	maximum = 35
Slowest flit = 34823
Fragmentation average = 0.757794
	minimum = 0
	maximum = 9
Injected packet rate average = 0.0131719
	minimum = 0 (at node 1)
	maximum = 0.0255 (at node 56)
Accepted packet rate average = 0.0131406
	minimum = 0 (at node 0)
	maximum = 0.0895 (at node 47)
Injected flit rate average = 0.0527031
	minimum = 0 (at node 1)
	maximum = 0.102 (at node 56)
Accepted flit rate average= 0.0526016
	minimum = 0 (at node 0)
	maximum = 0.358 (at node 47)
Injected packet length average = 4.00119
Accepted packet length average = 4.00297
Total in-flight flits = 67 (67 measured)
latency change    = 0.00579562
throughput change = 0.0316352
Class 0:
Packet latency average = 20.0051
	minimum = 10
	maximum = 38
Network latency average = 19.8626
	minimum = 10
	maximum = 38
Slowest packet = 8705
Flit latency average = 16.4947
	minimum = 7
	maximum = 35
Slowest flit = 34823
Fragmentation average = 0.745051
	minimum = 0
	maximum = 11
Injected packet rate average = 0.0132812
	minimum = 0 (at node 1)
	maximum = 0.0246667 (at node 47)
Accepted packet rate average = 0.0132292
	minimum = 0 (at node 0)
	maximum = 0.09 (at node 47)
Injected flit rate average = 0.0531354
	minimum = 0 (at node 1)
	maximum = 0.0986667 (at node 47)
Accepted flit rate average= 0.0529479
	minimum = 0 (at node 0)
	maximum = 0.360333 (at node 47)
Injected packet length average = 4.00078
Accepted packet length average = 4.00236
Total in-flight flits = 90 (90 measured)
latency change    = 0.00267964
throughput change = 0.00654141
Class 0:
Packet latency average = 20.0511
	minimum = 10
	maximum = 38
Network latency average = 19.9135
	minimum = 10
	maximum = 38
Slowest packet = 8705
Flit latency average = 16.5419
	minimum = 7
	maximum = 35
Slowest flit = 34823
Fragmentation average = 0.740697
	minimum = 0
	maximum = 11
Injected packet rate average = 0.0133008
	minimum = 0 (at node 1)
	maximum = 0.02375 (at node 55)
Accepted packet rate average = 0.0132812
	minimum = 0 (at node 0)
	maximum = 0.0845 (at node 47)
Injected flit rate average = 0.0531914
	minimum = 0 (at node 1)
	maximum = 0.095 (at node 55)
Accepted flit rate average= 0.0531484
	minimum = 0 (at node 0)
	maximum = 0.338 (at node 47)
Injected packet length average = 3.99912
Accepted packet length average = 4.00176
Total in-flight flits = 70 (70 measured)
latency change    = 0.00229146
throughput change = 0.00377285
Class 0:
Packet latency average = 20.1089
	minimum = 10
	maximum = 41
Network latency average = 19.9698
	minimum = 10
	maximum = 38
Slowest packet = 8705
Flit latency average = 16.5909
	minimum = 7
	maximum = 35
Slowest flit = 34823
Fragmentation average = 0.753807
	minimum = 0
	maximum = 11
Injected packet rate average = 0.0133906
	minimum = 0 (at node 1)
	maximum = 0.0238 (at node 55)
Accepted packet rate average = 0.0133844
	minimum = 0 (at node 0)
	maximum = 0.0842 (at node 47)
Injected flit rate average = 0.0535812
	minimum = 0 (at node 1)
	maximum = 0.0952 (at node 55)
Accepted flit rate average= 0.0535562
	minimum = 0 (at node 0)
	maximum = 0.3368 (at node 47)
Injected packet length average = 4.0014
Accepted packet length average = 4.0014
Total in-flight flits = 58 (58 measured)
latency change    = 0.00287594
throughput change = 0.00761466
Class 0:
Packet latency average = 20.1181
	minimum = 10
	maximum = 44
Network latency average = 19.9794
	minimum = 10
	maximum = 41
Slowest packet = 8705
Flit latency average = 16.5967
	minimum = 7
	maximum = 38
Slowest flit = 50080
Fragmentation average = 0.760329
	minimum = 0
	maximum = 13
Injected packet rate average = 0.0133385
	minimum = 0 (at node 1)
	maximum = 0.0238333 (at node 30)
Accepted packet rate average = 0.0133359
	minimum = 0 (at node 0)
	maximum = 0.0858333 (at node 47)
Injected flit rate average = 0.0533724
	minimum = 0 (at node 1)
	maximum = 0.0953333 (at node 30)
Accepted flit rate average= 0.0533516
	minimum = 0 (at node 0)
	maximum = 0.343333 (at node 47)
Injected packet length average = 4.00137
Accepted packet length average = 4.00059
Total in-flight flits = 57 (57 measured)
latency change    = 0.000454737
throughput change = 0.00383658
Class 0:
Packet latency average = 20.1473
	minimum = 10
	maximum = 44
Network latency average = 20.013
	minimum = 10
	maximum = 41
Slowest packet = 8705
Flit latency average = 16.6422
	minimum = 7
	maximum = 38
Slowest flit = 50080
Fragmentation average = 0.736514
	minimum = 0
	maximum = 13
Injected packet rate average = 0.0132812
	minimum = 0 (at node 1)
	maximum = 0.0242857 (at node 57)
Accepted packet rate average = 0.0132723
	minimum = 0 (at node 0)
	maximum = 0.0855714 (at node 47)
Injected flit rate average = 0.0531272
	minimum = 0 (at node 1)
	maximum = 0.0971429 (at node 57)
Accepted flit rate average= 0.0531094
	minimum = 0 (at node 0)
	maximum = 0.342286 (at node 47)
Injected packet length average = 4.00017
Accepted packet length average = 4.00151
Total in-flight flits = 63 (63 measured)
latency change    = 0.00145246
throughput change = 0.00456016
Class 0:
Packet latency average = 20.1358
	minimum = 10
	maximum = 44
Network latency average = 20.0024
	minimum = 10
	maximum = 41
Slowest packet = 8705
Flit latency average = 16.6322
	minimum = 7
	maximum = 38
Slowest flit = 50080
Fragmentation average = 0.729758
	minimum = 0
	maximum = 14
Injected packet rate average = 0.0132559
	minimum = 0 (at node 1)
	maximum = 0.02325 (at node 30)
Accepted packet rate average = 0.0132461
	minimum = 0 (at node 0)
	maximum = 0.083875 (at node 47)
Injected flit rate average = 0.0530352
	minimum = 0 (at node 1)
	maximum = 0.093 (at node 30)
Accepted flit rate average= 0.0530098
	minimum = 0 (at node 0)
	maximum = 0.3355 (at node 47)
Injected packet length average = 4.00088
Accepted packet length average = 4.00192
Total in-flight flits = 63 (63 measured)
latency change    = 0.000573627
throughput change = 0.00187908
Class 0:
Packet latency average = 20.1297
	minimum = 10
	maximum = 44
Network latency average = 19.996
	minimum = 10
	maximum = 41
Slowest packet = 8705
Flit latency average = 16.6297
	minimum = 7
	maximum = 38
Slowest flit = 50080
Fragmentation average = 0.725142
	minimum = 0
	maximum = 14
Injected packet rate average = 0.0132083
	minimum = 0 (at node 1)
	maximum = 0.0234444 (at node 30)
Accepted packet rate average = 0.0132066
	minimum = 0 (at node 0)
	maximum = 0.084 (at node 47)
Injected flit rate average = 0.0528438
	minimum = 0 (at node 1)
	maximum = 0.0937778 (at node 30)
Accepted flit rate average= 0.0528351
	minimum = 0 (at node 0)
	maximum = 0.336 (at node 47)
Injected packet length average = 4.00079
Accepted packet length average = 4.00066
Total in-flight flits = 55 (55 measured)
latency change    = 0.000301112
throughput change = 0.00330644
Class 0:
Packet latency average = 20.1117
	minimum = 10
	maximum = 44
Network latency average = 19.9808
	minimum = 10
	maximum = 41
Slowest packet = 8705
Flit latency average = 16.6162
	minimum = 7
	maximum = 38
Slowest flit = 50080
Fragmentation average = 0.720383
	minimum = 0
	maximum = 14
Injected packet rate average = 0.0132469
	minimum = 0 (at node 1)
	maximum = 0.0231 (at node 30)
Accepted packet rate average = 0.0132375
	minimum = 0 (at node 0)
	maximum = 0.0849 (at node 47)
Injected flit rate average = 0.0529906
	minimum = 0 (at node 1)
	maximum = 0.0924 (at node 30)
Accepted flit rate average= 0.0529578
	minimum = 0 (at node 0)
	maximum = 0.3398 (at node 47)
Injected packet length average = 4.00024
Accepted packet length average = 4.00059
Total in-flight flits = 75 (75 measured)
latency change    = 0.000894811
throughput change = 0.00231775
Class 0:
Packet latency average = 20.1236
	minimum = 10
	maximum = 44
Network latency average = 19.9911
	minimum = 10
	maximum = 41
Slowest packet = 8705
Flit latency average = 16.6257
	minimum = 7
	maximum = 38
Slowest flit = 50080
Fragmentation average = 0.72233
	minimum = 0
	maximum = 14
Injected packet rate average = 0.013169
	minimum = 0 (at node 1)
	maximum = 0.0227273 (at node 44)
Accepted packet rate average = 0.0131619
	minimum = 0 (at node 0)
	maximum = 0.0850909 (at node 47)
Injected flit rate average = 0.052679
	minimum = 0 (at node 1)
	maximum = 0.0909091 (at node 44)
Accepted flit rate average= 0.0526477
	minimum = 0 (at node 0)
	maximum = 0.340364 (at node 47)
Injected packet length average = 4.00022
Accepted packet length average = 4
Total in-flight flits = 76 (76 measured)
latency change    = 0.000592358
throughput change = 0.00588981
Class 0:
Packet latency average = 20.1088
	minimum = 10
	maximum = 44
Network latency average = 19.979
	minimum = 10
	maximum = 41
Slowest packet = 8705
Flit latency average = 16.6115
	minimum = 7
	maximum = 38
Slowest flit = 50080
Fragmentation average = 0.726772
	minimum = 0
	maximum = 14
Injected packet rate average = 0.0132578
	minimum = 0 (at node 1)
	maximum = 0.0226667 (at node 44)
Accepted packet rate average = 0.0132474
	minimum = 0 (at node 0)
	maximum = 0.0850833 (at node 47)
Injected flit rate average = 0.0530391
	minimum = 0 (at node 1)
	maximum = 0.0905 (at node 44)
Accepted flit rate average= 0.0529961
	minimum = 0 (at node 0)
	maximum = 0.340417 (at node 47)
Injected packet length average = 4.00059
Accepted packet length average = 4.00049
Total in-flight flits = 83 (83 measured)
latency change    = 0.000740428
throughput change = 0.00657344
22798 | node35 | Enqueuing flit 76384 (packet 19096) at time 22798.
22798 | traffic_manager | Finding output VC for flit 76384:
22798 | traffic_manager |   Selected output VC 0.
22798 | node35 | Injecting flit 76384 into subnet 0 at time 22798 with priority 0.
22799 | network_0/network_0_fchan_ingress35 | Beginning channel traversal for flit 76384 with delay 1.
22799 | network_0/network_0_fchan_ingress35 | Completed channel traversal for flit 76384.
22800 | network_0/router_4_3 | Received flit 76384 from channel at input 4.
22800 | network_0/router_4_3 | Adding flit 76384 to VC 0 at input 4 (state: idle, empty).
22800 | network_0/router_4_3/buf_4/vc_0 | Changing state from idle to routing.
22800 | network_0/router_4_3 | Beginning routing for VC 0 at input 4 (front: 76384).
22800 | network_0/router_4_3 | Completed routing for VC 0 at input 4 (front: 76384).
22800 | original computed out port is 0
	router state of out port is power_off
22800 | network_0/router_4_3 | Adding VC range [1,3] at output port 0 for flit 76384 (input port 4, destination 38).
22800 | computed out port is 0
22800 | network_0/router_4_3/buf_4/vc_0 | Changing state from routing to vc_alloc.
22801 | network_0/router_4_3 | Beginning VC allocation for VC 0 at input 4 (front: 76384).
22801 | network_0/router_4_3 |   Requesting VC 1 at output 0 (in_pri: 0, out_pri: 0).
22801 | network_0/router_4_3 |   Requesting VC 2 at output 0 (in_pri: 0, out_pri: 0).
22801 | network_0/router_4_3 |   Requesting VC 3 at output 0 (in_pri: 0, out_pri: 0).
22801 | network_0/router_4_3/vc_allocator | Input requests = [ 0 -> [ ]  1 -> [ ]  2 -> [ ]  3 -> [ ]  4 -> [ ]  5 -> [ ]  6 -> [ ]  7 -> [ ]  8 -> [ ]  9 -> [ ]  10 -> [ ]  11 -> [ ]  12 -> [ ]  13 -> [ ]  14 -> [ ]  15 -> [ ]  16 -> [ 1 2 3 ]  17 -> [ ]  18 -> [ ]  19 -> [ ]  ], output requests = [ 0 -> [ ]  1 -> [ 16 ]  2 -> [ 16 ]  3 -> [ 16 ]  4 -> [ ]  5 -> [ ]  6 -> [ ]  7 -> [ ]  8 -> [ ]  9 -> [ ]  10 -> [ ]  11 -> [ ]  12 -> [ ]  13 -> [ ]  14 -> [ ]  15 -> [ ]  16 -> [ ]  17 -> [ ]  18 -> [ ]  19 -> [ ]  ].
22801 | network_0/router_4_3/vc_allocator | Input grants = [ 16 -> 1  ], output grants = [ 1 -> 16  ].
22801 | network_0/router_4_3 | Assigning VC 1 at output 0 to VC 0 at input 4.
22801 | network_0/router_4_3 | Completed VC allocation for VC 0 at input 4 (front: 76384).
22801 | network_0/router_4_3 |   Acquiring assigned VC 1 at output 0.
22801 | network_0/router_4_3/buf_4/vc_0 | Changing state from vc_alloc to active.
22802 | network_0/router_4_3 | Beginning switch allocation for VC 0 at input 4 (front: 76384).
22802 | network_0/router_4_3 |   Requesting output 0.0 (non-spec, pri: 0).
22802 | network_0/router_4_3/sw_allocator | Input requests = [ 0 -> [ ]  1 -> [ ]  2 -> [ ]  3 -> [ ]  4 -> [ 0 ]  ], output requests = [ 0 -> [ 4 ]  1 -> [ ]  2 -> [ ]  3 -> [ ]  4 -> [ ]  ].
22802 | network_0/router_4_3/sw_allocator | Input grants = [ 4 -> 0  ], output grants = [ 0 -> 4  ].
22802 | network_0/router_4_3 | Assigning output 0.0 to VC 0 at input 4.0.
22802 | network_0/router_4_3 | Completed switch allocation for VC 0 at input 4 (front: 76384).
22802 | network_0/router_4_3 |   Scheduling switch connection from input 4.0 to output 0.0.
22803 | network_0/router_4_3 | Beginning crossbar traversal for flit 76384 from input 4.0 to output 0.0.
22803 | network_0/router_4_3 | Completed crossbar traversal for flit 76384 from input 4.0 to output 0.0.
22803 | network_0/router_4_3 | Buffering flit 76384 at output 0.
22803 | network_0/router_4_3 | Sending flit 76384 to channel at output 0.
22804 | network_0/network_0_fchan_140 | Beginning channel traversal for flit 76384 with delay 1.
22804 | network_0/network_0_fchan_140 | Completed channel traversal for flit 76384.
22805 | network_0/router_4_4 | Received flit 76384 from channel at input 1.
22805 | network_0/router_4_4 | Bypass flit 76384 to next router
22805 | network_0/router_4_4 | Buffering flit 76384 at output 0.
22805 | network_0/router_4_4 | Sending flit 76384 to channel at output 0.
22806 | network_0/network_0_fchan_144 | Beginning channel traversal for flit 76384 with delay 1.
22806 | network_0/network_0_fchan_144 | Completed channel traversal for flit 76384.
22807 | network_0/router_4_5 | Received flit 76384 from channel at input 1.
22807 | network_0/router_4_5 | Adding flit 76384 to VC 1 at input 1 (state: idle, empty).
22807 | network_0/router_4_5/buf_1/vc_1 | Changing state from idle to routing.
22807 | network_0/router_4_5 | Beginning routing for VC 1 at input 1 (front: 76384).
22807 | network_0/router_4_5 | Completed routing for VC 1 at input 1 (front: 76384).
22807 | original computed out port is 0
	router state of out port is power_on
22807 | network_0/router_4_5 | Adding VC range [1,3] at output port 0 for flit 76384 (input port 1, destination 38).
22807 | computed out port is 0
22807 | network_0/router_4_5/buf_1/vc_1 | Changing state from routing to vc_alloc.
22808 | network_0/router_4_5 | Beginning VC allocation for VC 1 at input 1 (front: 76384).
22808 | network_0/router_4_5 |   VC 1 at output 0 is in use by VC 0 at input 4 (front flit: 76420).
22808 | network_0/router_4_5 |   Requesting VC 2 at output 0 (in_pri: 0, out_pri: 0).
22808 | network_0/router_4_5 |   Requesting VC 3 at output 0 (in_pri: 0, out_pri: 0).
22808 | network_0/router_4_5/vc_allocator | Input requests = [ 0 -> [ ]  1 -> [ ]  2 -> [ ]  3 -> [ ]  4 -> [ ]  5 -> [ 2 3 ]  6 -> [ ]  7 -> [ ]  8 -> [ ]  9 -> [ ]  10 -> [ ]  11 -> [ ]  12 -> [ ]  13 -> [ ]  14 -> [ ]  15 -> [ ]  16 -> [ ]  17 -> [ ]  18 -> [ ]  19 -> [ ]  ], output requests = [ 0 -> [ ]  1 -> [ ]  2 -> [ 5 ]  3 -> [ 5 ]  4 -> [ ]  5 -> [ ]  6 -> [ ]  7 -> [ ]  8 -> [ ]  9 -> [ ]  10 -> [ ]  11 -> [ ]  12 -> [ ]  13 -> [ ]  14 -> [ ]  15 -> [ ]  16 -> [ ]  17 -> [ ]  18 -> [ ]  19 -> [ ]  ].
22808 | network_0/router_4_5/vc_allocator | Input grants = [ 5 -> 2  ], output grants = [ 2 -> 5  ].
22808 | network_0/router_4_5 | Assigning VC 2 at output 0 to VC 1 at input 1.
22808 | network_0/router_4_5 | Completed VC allocation for VC 1 at input 1 (front: 76384).
22808 | network_0/router_4_5 |   Acquiring assigned VC 2 at output 0.
22808 | network_0/router_4_5/buf_1/vc_1 | Changing state from vc_alloc to active.
22809 | network_0/router_4_5 | Beginning switch allocation for VC 1 at input 1 (front: 76384).
22809 | network_0/router_4_5 |   Requesting output 0.0 (non-spec, pri: 0).
22809 | network_0/router_4_5/sw_allocator | Input requests = [ 0 -> [ ]  1 -> [ 0 ]  2 -> [ ]  3 -> [ ]  4 -> [ 0 ]  ], output requests = [ 0 -> [ 1 4 ]  1 -> [ ]  2 -> [ ]  3 -> [ ]  4 -> [ ]  ].
22809 | network_0/router_4_5/sw_allocator | Input grants = [ 1 -> 0  ], output grants = [ 0 -> 1  ].
22809 | network_0/router_4_5 | Assigning output 0.0 to VC 1 at input 1.0.
22809 | network_0/router_4_5 | Completed switch allocation for VC 1 at input 1 (front: 76384).
22809 | network_0/router_4_5 |   Scheduling switch connection from input 1.0 to output 0.0.
22810 | network_0/router_4_5 | Beginning crossbar traversal for flit 76384 from input 1.0 to output 0.0.
22810 | network_0/router_4_5 | Completed crossbar traversal for flit 76384 from input 1.0 to output 0.0.
22810 | network_0/router_4_5 | Buffering flit 76384 at output 0.
22810 | network_0/router_4_5 | Sending flit 76384 to channel at output 0.
22811 | network_0/network_0_fchan_148 | Beginning channel traversal for flit 76384 with delay 1.
22811 | network_0/network_0_fchan_148 | Completed channel traversal for flit 76384.
22812 | network_0/router_4_6 | Received flit 76384 from channel at input 1.
22812 | network_0/router_4_6 | Adding flit 76384 to VC 2 at input 1 (state: idle, empty).
22812 | network_0/router_4_6/buf_1/vc_2 | Changing state from idle to routing.
22812 | network_0/router_4_6 | Beginning routing for VC 2 at input 1 (front: 76384).
22812 | network_0/router_4_6 | Completed routing for VC 2 at input 1 (front: 76384).
22812 | network_0/router_4_6/buf_1/vc_2 | Changing state from routing to vc_alloc.
22813 | network_0/router_4_6 | Beginning VC allocation for VC 2 at input 1 (front: 76384).
22813 | network_0/router_4_6 |   Requesting VC 0 at output 4 (in_pri: 0, out_pri: 0).
22813 | network_0/router_4_6 |   Requesting VC 1 at output 4 (in_pri: 0, out_pri: 0).
22813 | network_0/router_4_6 |   Requesting VC 2 at output 4 (in_pri: 0, out_pri: 0).
22813 | network_0/router_4_6 |   Requesting VC 3 at output 4 (in_pri: 0, out_pri: 0).
22813 | network_0/router_4_6/vc_allocator | Input requests = [ 0 -> [ ]  1 -> [ ]  2 -> [ ]  3 -> [ ]  4 -> [ ]  5 -> [ ]  6 -> [ 16 17 18 19 ]  7 -> [ ]  8 -> [ ]  9 -> [ ]  10 -> [ ]  11 -> [ ]  12 -> [ ]  13 -> [ ]  14 -> [ ]  15 -> [ ]  16 -> [ ]  17 -> [ ]  18 -> [ ]  19 -> [ ]  ], output requests = [ 0 -> [ ]  1 -> [ ]  2 -> [ ]  3 -> [ ]  4 -> [ ]  5 -> [ ]  6 -> [ ]  7 -> [ ]  8 -> [ ]  9 -> [ ]  10 -> [ ]  11 -> [ ]  12 -> [ ]  13 -> [ ]  14 -> [ ]  15 -> [ ]  16 -> [ 6 ]  17 -> [ 6 ]  18 -> [ 6 ]  19 -> [ 6 ]  ].
22813 | network_0/router_4_6/vc_allocator | Input grants = [ 6 -> 16  ], output grants = [ 16 -> 6  ].
22813 | network_0/router_4_6 | Assigning VC 0 at output 4 to VC 2 at input 1.
22813 | network_0/router_4_6 | Completed VC allocation for VC 2 at input 1 (front: 76384).
22813 | network_0/router_4_6 |   Acquiring assigned VC 0 at output 4.
22813 | network_0/router_4_6/buf_1/vc_2 | Changing state from vc_alloc to active.
22814 | network_0/router_4_6 | Beginning switch allocation for VC 2 at input 1 (front: 76384).
22814 | network_0/router_4_6 |   Requesting output 4.0 (non-spec, pri: 0).
22814 | network_0/router_4_6/sw_allocator | Input requests = [ 0 -> [ ]  1 -> [ 0 4 ]  2 -> [ ]  3 -> [ ]  4 -> [ ]  ], output requests = [ 0 -> [ 1 ]  1 -> [ ]  2 -> [ ]  3 -> [ ]  4 -> [ 1 ]  ].
22814 | network_0/router_4_6/sw_allocator | Input grants = [ 1 -> 4  ], output grants = [ 4 -> 1  ].
22814 | network_0/router_4_6 | Assigning output 4.0 to VC 2 at input 1.0.
22814 | network_0/router_4_6 | Completed switch allocation for VC 2 at input 1 (front: 76384).
22814 | network_0/router_4_6 |   Scheduling switch connection from input 1.0 to output 4.0.
22815 | network_0/router_4_6 | Beginning crossbar traversal for flit 76384 from input 1.0 to output 4.0.
22815 | network_0/router_4_6 | Completed crossbar traversal for flit 76384 from input 1.0 to output 4.0.
22815 | network_0/router_4_6 | Buffering flit 76384 at output 4.
22815 | network_0/router_4_6 | Sending flit 76384 to channel at output 4.
22816 | network_0/network_0_fchan_egress38 | Beginning channel traversal for flit 76384 with delay 1.
22816 | network_0/network_0_fchan_egress38 | Completed channel traversal for flit 76384.
22817 | node38 | Ejecting flit 76384 (packet 19096) from VC 0.
22817 | node38 | Injecting credit for VC 0 into subnet 0.
22817 | node38 | Retiring flit 76384 (packet 19096, src = 35, dest = 38, hops = 3, flov hops = 1, flat = 19).
Class 0:
Packet latency average = 20.122
	minimum = 10
	maximum = 44
Network latency average = 19.9909
	minimum = 10
	maximum = 41
Slowest packet = 8705
Flit latency average = 16.6214
	minimum = 7
	maximum = 38
Slowest flit = 50080
Fragmentation average = 0.729604
	minimum = 0
	maximum = 14
Injected packet rate average = 0.013232
	minimum = 0 (at node 1)
	maximum = 0.0223077 (at node 44)
Accepted packet rate average = 0.013232
	minimum = 0 (at node 0)
	maximum = 0.0852308 (at node 47)
Injected flit rate average = 0.0529351
	minimum = 0 (at node 1)
	maximum = 0.0892308 (at node 44)
Accepted flit rate average= 0.0529327
	minimum = 0 (at node 0)
	maximum = 0.340923 (at node 47)
Injected packet length average = 4.00055
Accepted packet length average = 4.00036
Total in-flight flits = 52 (52 measured)
latency change    = 0.000656232
throughput change = 0.00119777
Class 0:
Packet latency average = 20.1046
	minimum = 10
	maximum = 44
Network latency average = 19.9727
	minimum = 10
	maximum = 41
Slowest packet = 8705
Flit latency average = 16.6062
	minimum = 7
	maximum = 38
Slowest flit = 50080
Fragmentation average = 0.725543
	minimum = 0
	maximum = 14
Injected packet rate average = 0.0132187
	minimum = 0 (at node 1)
	maximum = 0.0221429 (at node 38)
Accepted packet rate average = 0.0132154
	minimum = 0 (at node 0)
	maximum = 0.0844286 (at node 47)
Injected flit rate average = 0.0528828
	minimum = 0 (at node 1)
	maximum = 0.0885714 (at node 38)
Accepted flit rate average= 0.0528728
	minimum = 0 (at node 0)
	maximum = 0.337714 (at node 47)
Injected packet length average = 4.00059
Accepted packet length average = 4.00084
Total in-flight flits = 58 (58 measured)
latency change    = 0.000864148
throughput change = 0.00113337
Class 0:
Packet latency average = 20.1455
	minimum = 10
	maximum = 44
Network latency average = 20.0126
	minimum = 10
	maximum = 41
Slowest packet = 8705
Flit latency average = 16.642
	minimum = 7
	maximum = 38
Slowest flit = 50080
Fragmentation average = 0.7312
	minimum = 0
	maximum = 14
Injected packet rate average = 0.0132333
	minimum = 0 (at node 1)
	maximum = 0.0223333 (at node 59)
Accepted packet rate average = 0.0132292
	minimum = 0 (at node 0)
	maximum = 0.0841333 (at node 47)
Injected flit rate average = 0.0529312
	minimum = 0 (at node 1)
	maximum = 0.0894 (at node 59)
Accepted flit rate average= 0.0529208
	minimum = 0 (at node 0)
	maximum = 0.336533 (at node 47)
Injected packet length average = 3.99984
Accepted packet length average = 4.00031
Total in-flight flits = 68 (68 measured)
latency change    = 0.0020314
throughput change = 0.000908252
Class 0:
Packet latency average = 20.1394
	minimum = 10
	maximum = 44
Network latency average = 20.0056
	minimum = 10
	maximum = 41
Slowest packet = 8705
Flit latency average = 16.6371
	minimum = 7
	maximum = 38
Slowest flit = 50080
Fragmentation average = 0.726407
	minimum = 0
	maximum = 14
Injected packet rate average = 0.0132529
	minimum = 0 (at node 1)
	maximum = 0.0223125 (at node 62)
Accepted packet rate average = 0.013249
	minimum = 0 (at node 0)
	maximum = 0.0845625 (at node 47)
Injected flit rate average = 0.0530137
	minimum = 0 (at node 1)
	maximum = 0.08925 (at node 62)
Accepted flit rate average= 0.053001
	minimum = 0 (at node 0)
	maximum = 0.338375 (at node 47)
Injected packet length average = 4.00015
Accepted packet length average = 4.00037
Total in-flight flits = 67 (67 measured)
latency change    = 0.000304677
throughput change = 0.00151211
Class 0:
Packet latency average = 20.1403
	minimum = 10
	maximum = 44
Network latency average = 20.0064
	minimum = 10
	maximum = 41
Slowest packet = 8705
Flit latency average = 16.6378
	minimum = 7
	maximum = 38
Slowest flit = 50080
Fragmentation average = 0.727084
	minimum = 0
	maximum = 14
Injected packet rate average = 0.013273
	minimum = 0 (at node 1)
	maximum = 0.0222353 (at node 59)
Accepted packet rate average = 0.0132684
	minimum = 0 (at node 0)
	maximum = 0.0856471 (at node 47)
Injected flit rate average = 0.0530901
	minimum = 0 (at node 1)
	maximum = 0.0891176 (at node 59)
Accepted flit rate average= 0.0530809
	minimum = 0 (at node 0)
	maximum = 0.342588 (at node 47)
Injected packet length average = 3.99986
Accepted packet length average = 4.00055
Total in-flight flits = 68 (68 measured)
latency change    = 4.77852e-05
throughput change = 0.00150536
Class 0:
Packet latency average = 20.1511
	minimum = 10
	maximum = 44
Network latency average = 20.0155
	minimum = 10
	maximum = 41
Slowest packet = 8705
Flit latency average = 16.6516
	minimum = 7
	maximum = 38
Slowest flit = 50080
Fragmentation average = 0.717627
	minimum = 0
	maximum = 14
Injected packet rate average = 0.0133012
	minimum = 0 (at node 1)
	maximum = 0.0225556 (at node 24)
Accepted packet rate average = 0.0132986
	minimum = 0 (at node 0)
	maximum = 0.0852222 (at node 47)
Injected flit rate average = 0.0532118
	minimum = 0 (at node 1)
	maximum = 0.0903889 (at node 24)
Accepted flit rate average= 0.0531979
	minimum = 0 (at node 0)
	maximum = 0.340889 (at node 47)
Injected packet length average = 4.00052
Accepted packet length average = 4.00026
Total in-flight flits = 64 (64 measured)
latency change    = 0.000531522
throughput change = 0.00219998
Class 0:
Packet latency average = 20.1356
	minimum = 10
	maximum = 44
Network latency average = 20.0022
	minimum = 10
	maximum = 41
Slowest packet = 8705
Flit latency average = 16.6385
	minimum = 7
	maximum = 38
Slowest flit = 50080
Fragmentation average = 0.715871
	minimum = 0
	maximum = 14
Injected packet rate average = 0.0132829
	minimum = 0 (at node 1)
	maximum = 0.0225263 (at node 24)
Accepted packet rate average = 0.0132763
	minimum = 0 (at node 0)
	maximum = 0.0845263 (at node 47)
Injected flit rate average = 0.0531324
	minimum = 0 (at node 1)
	maximum = 0.0902632 (at node 24)
Accepted flit rate average= 0.0531151
	minimum = 0 (at node 0)
	maximum = 0.338105 (at node 47)
Injected packet length average = 4.00006
Accepted packet length average = 4.00074
Total in-flight flits = 76 (76 measured)
latency change    = 0.000765012
throughput change = 0.0015586
Class 0:
Packet latency average = 20.1366
	minimum = 10
	maximum = 44
Network latency average = 20.005
	minimum = 10
	maximum = 43
Slowest packet = 8705
Flit latency average = 16.6411
	minimum = 7
	maximum = 40
Slowest flit = 99771
Fragmentation average = 0.717539
	minimum = 0
	maximum = 14
Injected packet rate average = 0.0132531
	minimum = 0 (at node 1)
	maximum = 0.0225 (at node 24)
Accepted packet rate average = 0.0132539
	minimum = 0 (at node 0)
	maximum = 0.0845 (at node 47)
Injected flit rate average = 0.0530164
	minimum = 0 (at node 1)
	maximum = 0.09015 (at node 24)
Accepted flit rate average= 0.0530156
	minimum = 0 (at node 0)
	maximum = 0.338 (at node 47)
Injected packet length average = 4.00029
Accepted packet length average = 4
Total in-flight flits = 52 (52 measured)
latency change    = 4.57999e-05
throughput change = 0.00187693
Class 0:
Packet latency average = 20.1407
	minimum = 10
	maximum = 44
Network latency average = 20.0094
	minimum = 10
	maximum = 43
Slowest packet = 8705
Flit latency average = 16.6443
	minimum = 7
	maximum = 40
Slowest flit = 99771
Fragmentation average = 0.719921
	minimum = 0
	maximum = 14
Injected packet rate average = 0.0132515
	minimum = 0 (at node 1)
	maximum = 0.022381 (at node 24)
Accepted packet rate average = 0.0132507
	minimum = 0 (at node 0)
	maximum = 0.0844286 (at node 47)
Injected flit rate average = 0.0530097
	minimum = 0 (at node 1)
	maximum = 0.0896667 (at node 24)
Accepted flit rate average= 0.053006
	minimum = 0 (at node 0)
	maximum = 0.337714 (at node 47)
Injected packet length average = 4.00028
Accepted packet length average = 4.00022
Total in-flight flits = 56 (56 measured)
latency change    = 0.000202941
throughput change = 0.000182482
Class 0:
Packet latency average = 20.1387
	minimum = 10
	maximum = 44
Network latency average = 20.0079
	minimum = 10
	maximum = 43
Slowest packet = 8705
Flit latency average = 16.645
	minimum = 7
	maximum = 40
Slowest flit = 99771
Fragmentation average = 0.715055
	minimum = 0
	maximum = 14
Injected packet rate average = 0.0132045
	minimum = 0 (at node 1)
	maximum = 0.0221364 (at node 24)
Accepted packet rate average = 0.0132053
	minimum = 0 (at node 0)
	maximum = 0.0847727 (at node 47)
Injected flit rate average = 0.0528196
	minimum = 0 (at node 1)
	maximum = 0.0886818 (at node 24)
Accepted flit rate average= 0.052826
	minimum = 0 (at node 0)
	maximum = 0.339091 (at node 47)
Injected packet length average = 4.00011
Accepted packet length average = 4.00038
Total in-flight flits = 45 (45 measured)
latency change    = 9.96255e-05
throughput change = 0.00340662
Class 0:
Packet latency average = 20.1431
	minimum = 10
	maximum = 44
Network latency average = 20.0115
	minimum = 10
	maximum = 43
Slowest packet = 8705
Flit latency average = 16.6462
	minimum = 7
	maximum = 40
Slowest flit = 99771
Fragmentation average = 0.720062
	minimum = 0
	maximum = 14
Injected packet rate average = 0.0132534
	minimum = 0 (at node 1)
	maximum = 0.0222609 (at node 24)
Accepted packet rate average = 0.01325
	minimum = 0 (at node 0)
	maximum = 0.0840435 (at node 47)
Injected flit rate average = 0.0530129
	minimum = 0 (at node 1)
	maximum = 0.0891739 (at node 24)
Accepted flit rate average= 0.0530034
	minimum = 0 (at node 0)
	maximum = 0.336174 (at node 47)
Injected packet length average = 3.99995
Accepted packet length average = 4.00026
Total in-flight flits = 71 (71 measured)
latency change    = 0.000220813
throughput change = 0.003347
Class 0:
Packet latency average = 20.1313
	minimum = 10
	maximum = 44
Network latency average = 19.9987
	minimum = 10
	maximum = 43
Slowest packet = 8705
Flit latency average = 16.6339
	minimum = 7
	maximum = 40
Slowest flit = 99771
Fragmentation average = 0.718848
	minimum = 0
	maximum = 14
Injected packet rate average = 0.0132474
	minimum = 0 (at node 1)
	maximum = 0.0225417 (at node 24)
Accepted packet rate average = 0.0132383
	minimum = 0 (at node 0)
	maximum = 0.0834583 (at node 47)
Injected flit rate average = 0.052987
	minimum = 0 (at node 1)
	maximum = 0.0902917 (at node 24)
Accepted flit rate average= 0.0529583
	minimum = 0 (at node 0)
	maximum = 0.333833 (at node 47)
Injected packet length average = 3.9998
Accepted packet length average = 4.00039
Total in-flight flits = 104 (104 measured)
latency change    = 0.000583697
throughput change = 0.000850922
Class 0:
Packet latency average = 20.1225
	minimum = 10
	maximum = 44
Network latency average = 19.9909
	minimum = 10
	maximum = 43
Slowest packet = 8705
Flit latency average = 16.626
	minimum = 7
	maximum = 40
Slowest flit = 99771
Fragmentation average = 0.719234
	minimum = 0
	maximum = 14
Injected packet rate average = 0.013235
	minimum = 0 (at node 1)
	maximum = 0.02228 (at node 24)
Accepted packet rate average = 0.0132338
	minimum = 0 (at node 0)
	maximum = 0.08328 (at node 47)
Injected flit rate average = 0.0529413
	minimum = 0 (at node 1)
	maximum = 0.08924 (at node 24)
Accepted flit rate average= 0.0529369
	minimum = 0 (at node 0)
	maximum = 0.33312 (at node 47)
Injected packet length average = 4.00009
Accepted packet length average = 4.00014
Total in-flight flits = 61 (61 measured)
latency change    = 0.000439963
throughput change = 0.000405357
Class 0:
Packet latency average = 20.1191
	minimum = 10
	maximum = 44
Network latency average = 19.9881
	minimum = 10
	maximum = 43
Slowest packet = 8705
Flit latency average = 16.6258
	minimum = 7
	maximum = 40
Slowest flit = 99771
Fragmentation average = 0.715214
	minimum = 0
	maximum = 14
Injected packet rate average = 0.0132362
	minimum = 0 (at node 1)
	maximum = 0.0225385 (at node 24)
Accepted packet rate average = 0.013229
	minimum = 0 (at node 0)
	maximum = 0.0824615 (at node 47)
Injected flit rate average = 0.0529447
	minimum = 0 (at node 1)
	maximum = 0.0902692 (at node 24)
Accepted flit rate average= 0.0529255
	minimum = 0 (at node 0)
	maximum = 0.329846 (at node 47)
Injected packet length average = 4
Accepted packet length average = 4.00073
Total in-flight flits = 88 (88 measured)
latency change    = 0.000171201
throughput change = 0.000215288
Class 0:
Packet latency average = 20.1093
	minimum = 10
	maximum = 44
Network latency average = 19.978
	minimum = 10
	maximum = 43
Slowest packet = 8705
Flit latency average = 16.6165
	minimum = 7
	maximum = 40
Slowest flit = 99771
Fragmentation average = 0.711951
	minimum = 0
	maximum = 14
Injected packet rate average = 0.0132164
	minimum = 0 (at node 1)
	maximum = 0.0224815 (at node 24)
Accepted packet rate average = 0.0132176
	minimum = 0 (at node 0)
	maximum = 0.0822222 (at node 47)
Injected flit rate average = 0.0528681
	minimum = 0 (at node 1)
	maximum = 0.090037 (at node 24)
Accepted flit rate average= 0.0528715
	minimum = 0 (at node 0)
	maximum = 0.328889 (at node 47)
Injected packet length average = 4.00018
Accepted packet length average = 4.00009
Total in-flight flits = 46 (46 measured)
latency change    = 0.000486815
throughput change = 0.00102045
Class 0:
Packet latency average = 20.1224
	minimum = 10
	maximum = 44
Network latency average = 19.9909
	minimum = 10
	maximum = 43
Slowest packet = 8705
Flit latency average = 16.6285
	minimum = 7
	maximum = 40
Slowest flit = 99771
Fragmentation average = 0.713183
	minimum = 0
	maximum = 14
Injected packet rate average = 0.0132372
	minimum = 0 (at node 1)
	maximum = 0.0223929 (at node 24)
Accepted packet rate average = 0.01324
	minimum = 0 (at node 0)
	maximum = 0.0818571 (at node 47)
Injected flit rate average = 0.0529526
	minimum = 0 (at node 1)
	maximum = 0.0896786 (at node 24)
Accepted flit rate average= 0.0529621
	minimum = 0 (at node 0)
	maximum = 0.327429 (at node 47)
Injected packet length average = 4.0003
Accepted packet length average = 4.00017
Total in-flight flits = 32 (32 measured)
latency change    = 0.000652205
throughput change = 0.00170926
Class 0:
Packet latency average = 20.1212
	minimum = 10
	maximum = 44
Network latency average = 19.9911
	minimum = 10
	maximum = 43
Slowest packet = 8705
Flit latency average = 16.6299
	minimum = 7
	maximum = 40
Slowest flit = 99771
Fragmentation average = 0.711379
	minimum = 0
	maximum = 14
Injected packet rate average = 0.0132495
	minimum = 0 (at node 1)
	maximum = 0.0224483 (at node 24)
Accepted packet rate average = 0.0132468
	minimum = 0 (at node 0)
	maximum = 0.0818966 (at node 47)
Injected flit rate average = 0.0529989
	minimum = 0 (at node 1)
	maximum = 0.0898966 (at node 24)
Accepted flit rate average= 0.0529908
	minimum = 0 (at node 0)
	maximum = 0.32769 (at node 47)
Injected packet length average = 4.00008
Accepted packet length average = 4.00028
Total in-flight flits = 69 (69 measured)
latency change    = 6.11859e-05
throughput change = 0.000543244
Class 0:
Packet latency average = 20.1179
	minimum = 10
	maximum = 44
Network latency average = 19.9882
	minimum = 10
	maximum = 43
Slowest packet = 8705
Flit latency average = 16.6287
	minimum = 7
	maximum = 40
Slowest flit = 99771
Fragmentation average = 0.707588
	minimum = 0
	maximum = 14
Injected packet rate average = 0.0132479
	minimum = 0 (at node 1)
	maximum = 0.0224 (at node 24)
Accepted packet rate average = 0.0132484
	minimum = 0 (at node 0)
	maximum = 0.0824 (at node 47)
Injected flit rate average = 0.0529958
	minimum = 0 (at node 1)
	maximum = 0.0897 (at node 24)
Accepted flit rate average= 0.0529964
	minimum = 0 (at node 0)
	maximum = 0.3296 (at node 47)
Injected packet length average = 4.00031
Accepted packet length average = 4.0002
Total in-flight flits = 47 (47 measured)
latency change    = 0.000160526
throughput change = 0.000104038
Class 0:
Packet latency average = 20.1221
	minimum = 10
	maximum = 44
Network latency average = 19.9912
	minimum = 10
	maximum = 43
Slowest packet = 8705
Flit latency average = 16.631
	minimum = 7
	maximum = 40
Slowest flit = 99771
Fragmentation average = 0.708934
	minimum = 0
	maximum = 14
Injected packet rate average = 0.0132485
	minimum = 0 (at node 1)
	maximum = 0.0222258 (at node 24)
Accepted packet rate average = 0.0132475
	minimum = 0 (at node 0)
	maximum = 0.0826452 (at node 47)
Injected flit rate average = 0.0529919
	minimum = 0 (at node 1)
	maximum = 0.089 (at node 24)
Accepted flit rate average= 0.0529924
	minimum = 0 (at node 0)
	maximum = 0.330613 (at node 47)
Injected packet length average = 3.99985
Accepted packet length average = 4.00019
Total in-flight flits = 59 (59 measured)
latency change    = 0.000206656
throughput change = 7.38719e-05
Class 0:
Packet latency average = 20.1122
	minimum = 10
	maximum = 44
Network latency average = 19.9827
	minimum = 10
	maximum = 43
Slowest packet = 8705
Flit latency average = 16.6233
	minimum = 7
	maximum = 40
Slowest flit = 99771
Fragmentation average = 0.707224
	minimum = 0
	maximum = 14
Injected packet rate average = 0.0132148
	minimum = 0 (at node 1)
	maximum = 0.0219375 (at node 24)
Accepted packet rate average = 0.0132139
	minimum = 0 (at node 0)
	maximum = 0.0822813 (at node 47)
Injected flit rate average = 0.0528599
	minimum = 0 (at node 1)
	maximum = 0.0878437 (at node 24)
Accepted flit rate average= 0.0528564
	minimum = 0 (at node 0)
	maximum = 0.329125 (at node 47)
Injected packet length average = 4.00004
Accepted packet length average = 4.00007
Total in-flight flits = 62 (62 measured)
latency change    = 0.000491002
throughput change = 0.0025729
Class 0:
Packet latency average = 20.1028
	minimum = 10
	maximum = 44
Network latency average = 19.9737
	minimum = 10
	maximum = 43
Slowest packet = 8705
Flit latency average = 16.6157
	minimum = 7
	maximum = 40
Slowest flit = 99771
Fragmentation average = 0.704483
	minimum = 0
	maximum = 14
Injected packet rate average = 0.0131984
	minimum = 0 (at node 1)
	maximum = 0.0217273 (at node 24)
Accepted packet rate average = 0.0131993
	minimum = 0 (at node 0)
	maximum = 0.0817273 (at node 47)
Injected flit rate average = 0.0527964
	minimum = 0 (at node 1)
	maximum = 0.087 (at node 24)
Accepted flit rate average= 0.0527973
	minimum = 0 (at node 0)
	maximum = 0.326909 (at node 47)
Injected packet length average = 4.00022
Accepted packet length average = 4
Total in-flight flits = 48 (48 measured)
latency change    = 0.000470342
throughput change = 0.00111931
Class 0:
Packet latency average = 20.0974
	minimum = 10
	maximum = 44
Network latency average = 19.9685
	minimum = 10
	maximum = 43
Slowest packet = 8705
Flit latency average = 16.6125
	minimum = 7
	maximum = 40
Slowest flit = 99771
Fragmentation average = 0.700265
	minimum = 0
	maximum = 14
Injected packet rate average = 0.013182
	minimum = 0 (at node 1)
	maximum = 0.0214412 (at node 24)
Accepted packet rate average = 0.0131829
	minimum = 0 (at node 0)
	maximum = 0.0817353 (at node 47)
Injected flit rate average = 0.0527293
	minimum = 0 (at node 1)
	maximum = 0.0858529 (at node 24)
Accepted flit rate average= 0.0527339
	minimum = 0 (at node 0)
	maximum = 0.326941 (at node 47)
Injected packet length average = 4.0001
Accepted packet length average = 4.00017
Total in-flight flits = 43 (43 measured)
latency change    = 0.000267474
throughput change = 0.00120289
Class 0:
Packet latency average = 20.0981
	minimum = 10
	maximum = 45
Network latency average = 19.9686
	minimum = 10
	maximum = 44
Slowest packet = 8705
Flit latency average = 16.6122
	minimum = 7
	maximum = 41
Slowest flit = 150647
Fragmentation average = 0.700974
	minimum = 0
	maximum = 14
Injected packet rate average = 0.0131701
	minimum = 0 (at node 1)
	maximum = 0.0214571 (at node 24)
Accepted packet rate average = 0.0131665
	minimum = 0 (at node 0)
	maximum = 0.0817143 (at node 47)
Injected flit rate average = 0.0526808
	minimum = 0 (at node 1)
	maximum = 0.0859143 (at node 24)
Accepted flit rate average= 0.0526705
	minimum = 0 (at node 0)
	maximum = 0.326857 (at node 47)
Injected packet length average = 4.00003
Accepted packet length average = 4.00034
Total in-flight flits = 78 (78 measured)
latency change    = 3.78356e-05
throughput change = 0.00120332
Class 0:
Packet latency average = 20.0912
	minimum = 10
	maximum = 45
Network latency average = 19.9616
	minimum = 10
	maximum = 44
Slowest packet = 8705
Flit latency average = 16.6042
	minimum = 7
	maximum = 41
Slowest flit = 150647
Fragmentation average = 0.702651
	minimum = 0
	maximum = 14
Injected packet rate average = 0.0131884
	minimum = 0 (at node 1)
	maximum = 0.0215 (at node 24)
Accepted packet rate average = 0.0131853
	minimum = 0 (at node 0)
	maximum = 0.0818056 (at node 47)
Injected flit rate average = 0.052753
	minimum = 0 (at node 1)
	maximum = 0.0860556 (at node 24)
Accepted flit rate average= 0.0527418
	minimum = 0 (at node 0)
	maximum = 0.327222 (at node 47)
Injected packet length average = 3.99997
Accepted packet length average = 4.00003
Total in-flight flits = 83 (83 measured)
latency change    = 0.000345781
throughput change = 0.00135031
Class 0:
Packet latency average = 20.0938
	minimum = 10
	maximum = 45
Network latency average = 19.9632
	minimum = 10
	maximum = 44
Slowest packet = 8705
Flit latency average = 16.6053
	minimum = 7
	maximum = 41
Slowest flit = 150647
Fragmentation average = 0.703671
	minimum = 0
	maximum = 14
Injected packet rate average = 0.013201
	minimum = 0 (at node 1)
	maximum = 0.0216757 (at node 24)
Accepted packet rate average = 0.0132023
	minimum = 0 (at node 0)
	maximum = 0.0815405 (at node 47)
Injected flit rate average = 0.0528049
	minimum = 0 (at node 1)
	maximum = 0.0867297 (at node 24)
Accepted flit rate average= 0.0528091
	minimum = 0 (at node 0)
	maximum = 0.326162 (at node 47)
Injected packet length average = 4.00006
Accepted packet length average = 4
Total in-flight flits = 44 (44 measured)
latency change    = 0.000128024
throughput change = 0.00127569
Class 0:
Packet latency average = 20.0906
	minimum = 10
	maximum = 45
Network latency average = 19.961
	minimum = 10
	maximum = 44
Slowest packet = 8705
Flit latency average = 16.6044
	minimum = 7
	maximum = 41
Slowest flit = 150647
Fragmentation average = 0.700998
	minimum = 0
	maximum = 14
Injected packet rate average = 0.0131986
	minimum = 0 (at node 1)
	maximum = 0.0216579 (at node 24)
Accepted packet rate average = 0.0131965
	minimum = 0 (at node 0)
	maximum = 0.0815263 (at node 47)
Injected flit rate average = 0.0527973
	minimum = 0 (at node 1)
	maximum = 0.0867105 (at node 24)
Accepted flit rate average= 0.0527887
	minimum = 0 (at node 0)
	maximum = 0.326105 (at node 47)
Injected packet length average = 4.00022
Accepted packet length average = 4.00019
Total in-flight flits = 70 (70 measured)
latency change    = 0.00015658
throughput change = 0.000387779
Class 0:
Packet latency average = 20.0796
	minimum = 10
	maximum = 45
Network latency average = 19.9499
	minimum = 10
	maximum = 44
Slowest packet = 8705
Flit latency average = 16.5938
	minimum = 7
	maximum = 41
Slowest flit = 150647
Fragmentation average = 0.699626
	minimum = 0
	maximum = 14
Injected packet rate average = 0.0131755
	minimum = 0 (at node 1)
	maximum = 0.0216154 (at node 24)
Accepted packet rate average = 0.0131703
	minimum = 0 (at node 0)
	maximum = 0.0815128 (at node 47)
Injected flit rate average = 0.0527023
	minimum = 0 (at node 1)
	maximum = 0.0865385 (at node 24)
Accepted flit rate average= 0.0526867
	minimum = 0 (at node 0)
	maximum = 0.326051 (at node 47)
Injected packet length average = 4.00003
Accepted packet length average = 4.00043
Total in-flight flits = 94 (94 measured)
latency change    = 0.000551067
throughput change = 0.00193507
Class 0:
Packet latency average = 20.0775
	minimum = 10
	maximum = 45
Network latency average = 19.9479
	minimum = 10
	maximum = 44
Slowest packet = 8705
Flit latency average = 16.5932
	minimum = 7
	maximum = 41
Slowest flit = 150647
Fragmentation average = 0.697953
	minimum = 0
	maximum = 14
Injected packet rate average = 0.0131527
	minimum = 0 (at node 1)
	maximum = 0.02145 (at node 24)
Accepted packet rate average = 0.0131527
	minimum = 0 (at node 0)
	maximum = 0.081175 (at node 47)
Injected flit rate average = 0.0526121
	minimum = 0 (at node 1)
	maximum = 0.085875 (at node 24)
Accepted flit rate average= 0.0526145
	minimum = 0 (at node 0)
	maximum = 0.3247 (at node 47)
Injected packet length average = 4.00009
Accepted packet length average = 4.00027
Total in-flight flits = 47 (47 measured)
latency change    = 0.000102823
throughput change = 0.00137311
Class 0:
Packet latency average = 20.0811
	minimum = 10
	maximum = 45
Network latency average = 19.9519
	minimum = 10
	maximum = 44
Slowest packet = 8705
Flit latency average = 16.596
	minimum = 7
	maximum = 41
Slowest flit = 150647
Fragmentation average = 0.699389
	minimum = 0
	maximum = 14
Injected packet rate average = 0.0131749
	minimum = 0 (at node 1)
	maximum = 0.0212927 (at node 11)
Accepted packet rate average = 0.0131734
	minimum = 0 (at node 0)
	maximum = 0.0811707 (at node 47)
Injected flit rate average = 0.0527005
	minimum = 0 (at node 1)
	maximum = 0.0851463 (at node 11)
Accepted flit rate average= 0.0526955
	minimum = 0 (at node 0)
	maximum = 0.324683 (at node 47)
Injected packet length average = 4.00006
Accepted packet length average = 4.00014
Total in-flight flits = 67 (67 measured)
latency change    = 0.000180974
throughput change = 0.00153808
Class 0:
Packet latency average = 20.081
	minimum = 10
	maximum = 45
Network latency average = 19.951
	minimum = 10
	maximum = 44
Slowest packet = 8705
Flit latency average = 16.5956
	minimum = 7
	maximum = 41
Slowest flit = 150647
Fragmentation average = 0.69889
	minimum = 0
	maximum = 14
Injected packet rate average = 0.0131749
	minimum = 0 (at node 1)
	maximum = 0.0212143 (at node 24)
Accepted packet rate average = 0.0131745
	minimum = 0 (at node 0)
	maximum = 0.0808095 (at node 47)
Injected flit rate average = 0.0527001
	minimum = 0 (at node 1)
	maximum = 0.0849286 (at node 24)
Accepted flit rate average= 0.0527001
	minimum = 0 (at node 0)
	maximum = 0.323238 (at node 47)
Injected packet length average = 4.00006
Accepted packet length average = 4.00017
Total in-flight flits = 54 (54 measured)
latency change    = 7.91874e-06
throughput change = 8.81546e-05
Class 0:
Packet latency average = 20.0744
	minimum = 10
	maximum = 45
Network latency average = 19.9444
	minimum = 10
	maximum = 44
Slowest packet = 8705
Flit latency average = 16.5902
	minimum = 7
	maximum = 41
Slowest flit = 150647
Fragmentation average = 0.696634
	minimum = 0
	maximum = 14
Injected packet rate average = 0.0131781
	minimum = 0 (at node 1)
	maximum = 0.021093 (at node 24)
Accepted packet rate average = 0.0131773
	minimum = 0 (at node 0)
	maximum = 0.0805581 (at node 47)
Injected flit rate average = 0.0527144
	minimum = 0 (at node 1)
	maximum = 0.0844419 (at node 24)
Accepted flit rate average= 0.0527104
	minimum = 0 (at node 0)
	maximum = 0.322233 (at node 47)
Injected packet length average = 4.00017
Accepted packet length average = 4.00008
Total in-flight flits = 61 (61 measured)
latency change    = 0.000328295
throughput change = 0.000194338
Class 0:
Packet latency average = 20.0716
	minimum = 10
	maximum = 45
Network latency average = 19.9417
	minimum = 10
	maximum = 44
Slowest packet = 8705
Flit latency average = 16.5874
	minimum = 7
	maximum = 41
Slowest flit = 150647
Fragmentation average = 0.69679
	minimum = 0
	maximum = 14
Injected packet rate average = 0.0131808
	minimum = 0 (at node 1)
	maximum = 0.0211364 (at node 24)
Accepted packet rate average = 0.0131808
	minimum = 0 (at node 0)
	maximum = 0.0806591 (at node 63)
Injected flit rate average = 0.0527251
	minimum = 0 (at node 1)
	maximum = 0.0846136 (at node 24)
Accepted flit rate average= 0.0527237
	minimum = 0 (at node 0)
	maximum = 0.322636 (at node 63)
Injected packet length average = 4.00016
Accepted packet length average = 4.00005
Total in-flight flits = 54 (54 measured)
latency change    = 0.000137555
throughput change = 0.000252811
Class 0:
Packet latency average = 20.0683
	minimum = 10
	maximum = 45
Network latency average = 19.9386
	minimum = 10
	maximum = 44
Slowest packet = 8705
Flit latency average = 16.5848
	minimum = 7
	maximum = 41
Slowest flit = 150647
Fragmentation average = 0.695653
	minimum = 0
	maximum = 14
Injected packet rate average = 0.0131868
	minimum = 0 (at node 1)
	maximum = 0.0210222 (at node 24)
Accepted packet rate average = 0.0131854
	minimum = 0 (at node 0)
	maximum = 0.0806889 (at node 47)
Injected flit rate average = 0.0527472
	minimum = 0 (at node 1)
	maximum = 0.0841556 (at node 24)
Accepted flit rate average= 0.0527427
	minimum = 0 (at node 0)
	maximum = 0.322756 (at node 47)
Injected packet length average = 4
Accepted packet length average = 4.00008
Total in-flight flits = 69 (69 measured)
latency change    = 0.000163261
throughput change = 0.000359988
Class 0:
Packet latency average = 20.0711
	minimum = 10
	maximum = 45
Network latency average = 19.9417
	minimum = 10
	maximum = 44
Slowest packet = 8705
Flit latency average = 16.5879
	minimum = 7
	maximum = 41
Slowest flit = 150647
Fragmentation average = 0.696063
	minimum = 0
	maximum = 14
Injected packet rate average = 0.0131722
	minimum = 0 (at node 1)
	maximum = 0.0210435 (at node 11)
Accepted packet rate average = 0.0131698
	minimum = 0 (at node 0)
	maximum = 0.0806522 (at node 47)
Injected flit rate average = 0.0526892
	minimum = 0 (at node 1)
	maximum = 0.0841304 (at node 11)
Accepted flit rate average= 0.052681
	minimum = 0 (at node 0)
	maximum = 0.32263 (at node 47)
Injected packet length average = 4.00003
Accepted packet length average = 4.00013
Total in-flight flits = 79 (79 measured)
latency change    = 0.000138149
throughput change = 0.00117048
Class 0:
Packet latency average = 20.0681
	minimum = 10
	maximum = 45
Network latency average = 19.9392
	minimum = 10
	maximum = 44
Slowest packet = 8705
Flit latency average = 16.5859
	minimum = 7
	maximum = 41
Slowest flit = 150647
Fragmentation average = 0.695074
	minimum = 0
	maximum = 14
Injected packet rate average = 0.0131709
	minimum = 0 (at node 1)
	maximum = 0.021 (at node 62)
Accepted packet rate average = 0.0131705
	minimum = 0 (at node 0)
	maximum = 0.0806809 (at node 47)
Injected flit rate average = 0.0526842
	minimum = 0 (at node 1)
	maximum = 0.084 (at node 62)
Accepted flit rate average= 0.0526835
	minimum = 0 (at node 0)
	maximum = 0.322723 (at node 47)
Injected packet length average = 4.00005
Accepted packet length average = 4.0001
Total in-flight flits = 56 (56 measured)
latency change    = 0.00014984
throughput change = 4.67783e-05
Class 0:
Packet latency average = 20.0772
	minimum = 10
	maximum = 45
Network latency average = 19.9475
	minimum = 10
	maximum = 44
Slowest packet = 8705
Flit latency average = 16.5941
	minimum = 7
	maximum = 41
Slowest flit = 150647
Fragmentation average = 0.694993
	minimum = 0
	maximum = 14
Injected packet rate average = 0.0131908
	minimum = 0 (at node 1)
	maximum = 0.0211042 (at node 11)
Accepted packet rate average = 0.0131895
	minimum = 0 (at node 0)
	maximum = 0.0806667 (at node 47)
Injected flit rate average = 0.0527653
	minimum = 0 (at node 1)
	maximum = 0.0844167 (at node 11)
Accepted flit rate average= 0.0527598
	minimum = 0 (at node 0)
	maximum = 0.322688 (at node 47)
Injected packet length average = 4.00017
Accepted packet length average = 4.00015
Total in-flight flits = 66 (66 measured)
latency change    = 0.000453318
throughput change = 0.00144532
Class 0:
Packet latency average = 20.0845
	minimum = 10
	maximum = 45
Network latency average = 19.9543
	minimum = 10
	maximum = 44
Slowest packet = 8705
Flit latency average = 16.5995
	minimum = 7
	maximum = 41
Slowest flit = 150647
Fragmentation average = 0.697999
	minimum = 0
	maximum = 14
Injected packet rate average = 0.0132006
	minimum = 0 (at node 1)
	maximum = 0.0210816 (at node 11)
Accepted packet rate average = 0.0132009
	minimum = 0 (at node 0)
	maximum = 0.0807143 (at node 47)
Injected flit rate average = 0.0528033
	minimum = 0 (at node 1)
	maximum = 0.0843265 (at node 11)
Accepted flit rate average= 0.0528042
	minimum = 0 (at node 0)
	maximum = 0.322857 (at node 47)
Injected packet length average = 4.00007
Accepted packet length average = 4.00005
Total in-flight flits = 50 (50 measured)
latency change    = 0.000362212
throughput change = 0.000841667
Class 0:
Packet latency average = 20.0832
	minimum = 10
	maximum = 45
Network latency average = 19.9535
	minimum = 10
	maximum = 44
Slowest packet = 8705
Flit latency average = 16.5997
	minimum = 7
	maximum = 41
Slowest flit = 150647
Fragmentation average = 0.695773
	minimum = 0
	maximum = 14
Injected packet rate average = 0.0131941
	minimum = 0 (at node 1)
	maximum = 0.02108 (at node 11)
Accepted packet rate average = 0.0131925
	minimum = 0 (at node 0)
	maximum = 0.08076 (at node 47)
Injected flit rate average = 0.0527778
	minimum = 0 (at node 1)
	maximum = 0.08428 (at node 11)
Accepted flit rate average= 0.0527731
	minimum = 0 (at node 0)
	maximum = 0.32306 (at node 47)
Injected packet length average = 4.00012
Accepted packet length average = 4.00024
Total in-flight flits = 66 (66 measured)
latency change    = 6.50136e-05
throughput change = 0.000589015
Class 0:
Packet latency average = 20.0869
	minimum = 10
	maximum = 45
Network latency average = 19.9572
	minimum = 10
	maximum = 44
Slowest packet = 8705
Flit latency average = 16.6035
	minimum = 7
	maximum = 41
Slowest flit = 150647
Fragmentation average = 0.695825
	minimum = 0
	maximum = 14
Injected packet rate average = 0.0131847
	minimum = 0 (at node 1)
	maximum = 0.0211176 (at node 11)
Accepted packet rate average = 0.0131838
	minimum = 0 (at node 0)
	maximum = 0.0806275 (at node 47)
Injected flit rate average = 0.0527399
	minimum = 0 (at node 1)
	maximum = 0.0844706 (at node 11)
Accepted flit rate average= 0.0527371
	minimum = 0 (at node 0)
	maximum = 0.32251 (at node 47)
Injected packet length average = 4.00007
Accepted packet length average = 4.00014
Total in-flight flits = 62 (62 measured)
latency change    = 0.000186474
throughput change = 0.000682492
Class 0:
Packet latency average = 20.0886
	minimum = 10
	maximum = 45
Network latency average = 19.9586
	minimum = 10
	maximum = 44
Slowest packet = 8705
Flit latency average = 16.6052
	minimum = 7
	maximum = 41
Slowest flit = 150647
Fragmentation average = 0.695003
	minimum = 0
	maximum = 14
Injected packet rate average = 0.0131839
	minimum = 0 (at node 1)
	maximum = 0.0211154 (at node 11)
Accepted packet rate average = 0.0131851
	minimum = 0 (at node 0)
	maximum = 0.0805385 (at node 47)
Injected flit rate average = 0.0527377
	minimum = 0 (at node 1)
	maximum = 0.0844615 (at node 11)
Accepted flit rate average= 0.0527416
	minimum = 0 (at node 0)
	maximum = 0.322154 (at node 47)
Injected packet length average = 4.00016
Accepted packet length average = 4.00009
Total in-flight flits = 36 (36 measured)
latency change    = 8.3175e-05
throughput change = 8.4453e-05
Class 0:
Packet latency average = 20.0927
	minimum = 10
	maximum = 45
Network latency average = 19.9627
	minimum = 10
	maximum = 44
Slowest packet = 8705
Flit latency average = 16.6098
	minimum = 7
	maximum = 41
Slowest flit = 150647
Fragmentation average = 0.693702
	minimum = 0
	maximum = 14
Injected packet rate average = 0.013168
	minimum = 0 (at node 1)
	maximum = 0.021 (at node 11)
Accepted packet rate average = 0.0131663
	minimum = 0 (at node 0)
	maximum = 0.0802642 (at node 47)
Injected flit rate average = 0.0526736
	minimum = 0 (at node 1)
	maximum = 0.084 (at node 11)
Accepted flit rate average= 0.0526675
	minimum = 0 (at node 0)
	maximum = 0.321057 (at node 47)
Injected packet length average = 4.00011
Accepted packet length average = 4.00018
Total in-flight flits = 72 (72 measured)
latency change    = 0.000205005
throughput change = 0.00140758
Class 0:
Packet latency average = 20.0858
	minimum = 10
	maximum = 45
Network latency average = 19.956
	minimum = 10
	maximum = 44
Slowest packet = 8705
Flit latency average = 16.603
	minimum = 7
	maximum = 41
Slowest flit = 150647
Fragmentation average = 0.693935
	minimum = 0
	maximum = 14
Injected packet rate average = 0.0131623
	minimum = 0 (at node 1)
	maximum = 0.0209444 (at node 11)
Accepted packet rate average = 0.013162
	minimum = 0 (at node 0)
	maximum = 0.0802593 (at node 47)
Injected flit rate average = 0.052649
	minimum = 0 (at node 1)
	maximum = 0.0837778 (at node 11)
Accepted flit rate average= 0.0526487
	minimum = 0 (at node 0)
	maximum = 0.321037 (at node 47)
Injected packet length average = 3.99998
Accepted packet length average = 4.00004
Total in-flight flits = 58 (58 measured)
latency change    = 0.000342421
throughput change = 0.000355678
Class 0:
Packet latency average = 20.0853
	minimum = 10
	maximum = 45
Network latency average = 19.9552
	minimum = 10
	maximum = 44
Slowest packet = 8705
Flit latency average = 16.6025
	minimum = 7
	maximum = 41
Slowest flit = 150647
Fragmentation average = 0.69311
	minimum = 0
	maximum = 14
Injected packet rate average = 0.0131568
	minimum = 0 (at node 1)
	maximum = 0.0209273 (at node 11)
Accepted packet rate average = 0.0131574
	minimum = 0 (at node 0)
	maximum = 0.0803818 (at node 47)
Injected flit rate average = 0.0526284
	minimum = 0 (at node 1)
	maximum = 0.0837091 (at node 11)
Accepted flit rate average= 0.052631
	minimum = 0 (at node 0)
	maximum = 0.321527 (at node 47)
Injected packet length average = 4.00009
Accepted packet length average = 4.00011
Total in-flight flits = 43 (43 measured)
latency change    = 2.56949e-05
throughput change = 0.000337462
Class 0:
Packet latency average = 20.091
	minimum = 10
	maximum = 45
Network latency average = 19.9607
	minimum = 10
	maximum = 44
Slowest packet = 8705
Flit latency average = 16.6069
	minimum = 7
	maximum = 41
Slowest flit = 150647
Fragmentation average = 0.695422
	minimum = 0
	maximum = 14
Injected packet rate average = 0.0131576
	minimum = 0 (at node 1)
	maximum = 0.021 (at node 11)
Accepted packet rate average = 0.0131551
	minimum = 0 (at node 0)
	maximum = 0.0805179 (at node 47)
Injected flit rate average = 0.0526325
	minimum = 0 (at node 1)
	maximum = 0.084 (at node 11)
Accepted flit rate average= 0.0526233
	minimum = 0 (at node 0)
	maximum = 0.322107 (at node 47)
Injected packet length average = 4.00015
Accepted packet length average = 4.00021
Total in-flight flits = 82 (82 measured)
latency change    = 0.00028496
throughput change = 0.000145183
Class 0:
Packet latency average = 20.0861
	minimum = 10
	maximum = 45
Network latency average = 19.9559
	minimum = 10
	maximum = 44
Slowest packet = 8705
Flit latency average = 16.6033
	minimum = 7
	maximum = 41
Slowest flit = 150647
Fragmentation average = 0.692651
	minimum = 0
	maximum = 14
Injected packet rate average = 0.013159
	minimum = 0 (at node 1)
	maximum = 0.0210702 (at node 11)
Accepted packet rate average = 0.0131593
	minimum = 0 (at node 0)
	maximum = 0.0804211 (at node 47)
Injected flit rate average = 0.0526357
	minimum = 0 (at node 1)
	maximum = 0.0842807 (at node 11)
Accepted flit rate average= 0.0526384
	minimum = 0 (at node 0)
	maximum = 0.321737 (at node 47)
Injected packet length average = 3.99998
Accepted packet length average = 4.0001
Total in-flight flits = 47 (47 measured)
latency change    = 0.000244846
throughput change = 0.000286979
Class 0:
Packet latency average = 20.0858
	minimum = 10
	maximum = 45
Network latency average = 19.9559
	minimum = 10
	maximum = 44
Slowest packet = 8705
Flit latency average = 16.6049
	minimum = 7
	maximum = 41
Slowest flit = 150647
Fragmentation average = 0.689976
	minimum = 0
	maximum = 14
Injected packet rate average = 0.0131614
	minimum = 0 (at node 1)
	maximum = 0.0210345 (at node 11)
Accepted packet rate average = 0.0131598
	minimum = 0 (at node 0)
	maximum = 0.0803103 (at node 47)
Injected flit rate average = 0.0526455
	minimum = 0 (at node 1)
	maximum = 0.0841379 (at node 11)
Accepted flit rate average= 0.0526401
	minimum = 0 (at node 0)
	maximum = 0.321241 (at node 47)
Injected packet length average = 4
Accepted packet length average = 4.00008
Total in-flight flits = 76 (76 measured)
latency change    = 1.80301e-05
throughput change = 3.14245e-05
Class 0:
Packet latency average = 20.0859
	minimum = 10
	maximum = 45
Network latency average = 19.9562
	minimum = 10
	maximum = 44
Slowest packet = 8705
Flit latency average = 16.6053
	minimum = 7
	maximum = 41
Slowest flit = 150647
Fragmentation average = 0.689307
	minimum = 0
	maximum = 14
Injected packet rate average = 0.0131589
	minimum = 0 (at node 1)
	maximum = 0.0212034 (at node 11)
Accepted packet rate average = 0.0131594
	minimum = 0 (at node 0)
	maximum = 0.0802881 (at node 47)
Injected flit rate average = 0.0526369
	minimum = 0 (at node 1)
	maximum = 0.0848136 (at node 11)
Accepted flit rate average= 0.0526393
	minimum = 0 (at node 0)
	maximum = 0.321203 (at node 47)
Injected packet length average = 4.0001
Accepted packet length average = 4.00012
Total in-flight flits = 42 (42 measured)
latency change    = 6.89264e-06
throughput change = 1.49196e-05
Class 0:
Packet latency average = 20.0868
	minimum = 10
	maximum = 45
Network latency average = 19.9576
	minimum = 10
	maximum = 44
Slowest packet = 8705
Flit latency average = 16.6065
	minimum = 7
	maximum = 41
Slowest flit = 150647
Fragmentation average = 0.689267
	minimum = 0
	maximum = 14
Injected packet rate average = 0.0131664
	minimum = 0 (at node 1)
	maximum = 0.0210833 (at node 11)
Accepted packet rate average = 0.0131664
	minimum = 0 (at node 0)
	maximum = 0.0803333 (at node 47)
Injected flit rate average = 0.0526667
	minimum = 0 (at node 1)
	maximum = 0.0843333 (at node 11)
Accepted flit rate average= 0.0526685
	minimum = 0 (at node 0)
	maximum = 0.321333 (at node 47)
Injected packet length average = 4.00008
Accepted packet length average = 4.00022
Total in-flight flits = 45 (45 measured)
latency change    = 4.3688e-05
throughput change = 0.000554197
Class 0:
Packet latency average = 20.0834
	minimum = 10
	maximum = 45
Network latency average = 19.9544
	minimum = 10
	maximum = 44
Slowest packet = 8705
Flit latency average = 16.6029
	minimum = 7
	maximum = 41
Slowest flit = 150647
Fragmentation average = 0.690397
	minimum = 0
	maximum = 14
Injected packet rate average = 0.0131639
	minimum = 0 (at node 1)
	maximum = 0.0209836 (at node 62)
Accepted packet rate average = 0.0131616
	minimum = 0 (at node 0)
	maximum = 0.0802623 (at node 47)
Injected flit rate average = 0.0526555
	minimum = 0 (at node 1)
	maximum = 0.0839344 (at node 62)
Accepted flit rate average= 0.0526491
	minimum = 0 (at node 0)
	maximum = 0.321082 (at node 47)
Injected packet length average = 3.99998
Accepted packet length average = 4.00019
Total in-flight flits = 82 (82 measured)
latency change    = 0.000166238
throughput change = 0.0003687
Class 0:
Packet latency average = 20.0856
	minimum = 10
	maximum = 45
Network latency average = 19.9558
	minimum = 10
	maximum = 44
Slowest packet = 8705
Flit latency average = 16.604
	minimum = 7
	maximum = 41
Slowest flit = 150647
Fragmentation average = 0.690835
	minimum = 0
	maximum = 14
Injected packet rate average = 0.0131777
	minimum = 0 (at node 1)
	maximum = 0.0210645 (at node 62)
Accepted packet rate average = 0.0131772
	minimum = 0 (at node 0)
	maximum = 0.0805 (at node 47)
Injected flit rate average = 0.0527127
	minimum = 0 (at node 1)
	maximum = 0.0842581 (at node 62)
Accepted flit rate average= 0.0527102
	minimum = 0 (at node 0)
	maximum = 0.322048 (at node 47)
Injected packet length average = 4.00015
Accepted packet length average = 4.00011
Total in-flight flits = 58 (58 measured)
latency change    = 0.000110077
throughput change = 0.00115924
Class 0:
Packet latency average = 20.0876
	minimum = 10
	maximum = 45
Network latency average = 19.9575
	minimum = 10
	maximum = 44
Slowest packet = 8705
Flit latency average = 16.6061
	minimum = 7
	maximum = 41
Slowest flit = 150647
Fragmentation average = 0.690697
	minimum = 0
	maximum = 14
Injected packet rate average = 0.0131865
	minimum = 0 (at node 1)
	maximum = 0.0211111 (at node 62)
Accepted packet rate average = 0.0131868
	minimum = 0 (at node 0)
	maximum = 0.0809048 (at node 47)
Injected flit rate average = 0.0527463
	minimum = 0 (at node 1)
	maximum = 0.0844444 (at node 62)
Accepted flit rate average= 0.0527478
	minimum = 0 (at node 0)
	maximum = 0.323619 (at node 47)
Injected packet length average = 4.00002
Accepted packet length average = 4.00006
Total in-flight flits = 49 (49 measured)
latency change    = 9.50217e-05
throughput change = 0.000712569
Class 0:
Packet latency average = 20.0903
	minimum = 10
	maximum = 45
Network latency average = 19.9603
	minimum = 10
	maximum = 44
Slowest packet = 8705
Flit latency average = 16.6081
	minimum = 7
	maximum = 41
Slowest flit = 150647
Fragmentation average = 0.692242
	minimum = 0
	maximum = 14
Injected packet rate average = 0.0131804
	minimum = 0 (at node 1)
	maximum = 0.0210313 (at node 62)
Accepted packet rate average = 0.0131799
	minimum = 0 (at node 0)
	maximum = 0.0810469 (at node 47)
Injected flit rate average = 0.0527222
	minimum = 0 (at node 1)
	maximum = 0.084125 (at node 62)
Accepted flit rate average= 0.0527214
	minimum = 0 (at node 0)
	maximum = 0.324203 (at node 47)
Injected packet length average = 4.00004
Accepted packet length average = 4.00013
Total in-flight flits = 57 (57 measured)
latency change    = 0.000137928
throughput change = 0.000499461
Class 0:
Packet latency average = 20.0945
	minimum = 10
	maximum = 45
Network latency average = 19.9643
	minimum = 10
	maximum = 44
Slowest packet = 8705
Flit latency average = 16.6119
	minimum = 7
	maximum = 41
Slowest flit = 150647
Fragmentation average = 0.692303
	minimum = 0
	maximum = 14
Injected packet rate average = 0.0131685
	minimum = 0 (at node 1)
	maximum = 0.0209231 (at node 11)
Accepted packet rate average = 0.013168
	minimum = 0 (at node 0)
	maximum = 0.0809231 (at node 47)
Injected flit rate average = 0.052675
	minimum = 0 (at node 1)
	maximum = 0.0836923 (at node 11)
Accepted flit rate average= 0.0526726
	minimum = 0 (at node 0)
	maximum = 0.323692 (at node 47)
Injected packet length average = 4.00007
Accepted packet length average = 4.00004
Total in-flight flits = 62 (62 measured)
latency change    = 0.000207439
throughput change = 0.000927226
Class 0:
Packet latency average = 20.0963
	minimum = 10
	maximum = 45
Network latency average = 19.9656
	minimum = 10
	maximum = 44
Slowest packet = 8705
Flit latency average = 16.6143
	minimum = 7
	maximum = 41
Slowest flit = 150647
Fragmentation average = 0.690364
	minimum = 0
	maximum = 14
Injected packet rate average = 0.0131726
	minimum = 0 (at node 1)
	maximum = 0.0209545 (at node 11)
Accepted packet rate average = 0.0131702
	minimum = 0 (at node 0)
	maximum = 0.0809394 (at node 47)
Injected flit rate average = 0.0526906
	minimum = 0 (at node 1)
	maximum = 0.0838182 (at node 11)
Accepted flit rate average= 0.0526823
	minimum = 0 (at node 0)
	maximum = 0.323758 (at node 47)
Injected packet length average = 4.00002
Accepted packet length average = 4.00011
Total in-flight flits = 90 (90 measured)
latency change    = 9.16979e-05
throughput change = 0.000184037
Class 0:
Packet latency average = 20.0967
	minimum = 10
	maximum = 45
Network latency average = 19.9654
	minimum = 10
	maximum = 44
[...]
throughput change = 0.000259467
Class 0:
Packet latency average = 20.0924
	minimum = 10
	maximum = 45
Network latency average = 19.9625
	minimum = 10
	maximum = 44
Slowest packet = 8705
Flit latency average = 16.6105
	minimum = 7
	maximum = 41
Slowest flit = 150647
Fragmentation average = 0.691135
	minimum = 0
	maximum = 14
Injected packet rate average = 0.0131613
	minimum = 0 (at node 1)
	maximum = 0.0208052 (at node 12)
Accepted packet rate average = 0.0131617
	minimum = 0 (at node 0)
	maximum = 0.0806883 (at node 47)
Injected flit rate average = 0.0526463
	minimum = 0 (at node 1)
	maximum = 0.0832208 (at node 12)
Accepted flit rate average= 0.0526479
	minimum = 0 (at node 0)
	maximum = 0.322792 (at node 47)
Injected packet length average = 4.00008
Accepted packet length average = 4.00008
Total in-flight flits = 43 (43 measured)
latency change    = 0.000101166
throughput change = 0.000939035
Class 0:
Packet latency average = 20.0914
	minimum = 10
	maximum = 45
Network latency average = 19.9617
	minimum = 10
	maximum = 44
Slowest packet = 8705
Flit latency average = 16.6085
	minimum = 7
	maximum = 41
Slowest flit = 150647
Fragmentation average = 0.693674
	minimum = 0
	maximum = 14
Injected packet rate average = 0.0131721
	minimum = 0 (at node 1)
	maximum = 0.0208205 (at node 30)
Accepted packet rate average = 0.0131733
	minimum = 0 (at node 0)
	maximum = 0.0807821 (at node 47)
Injected flit rate average = 0.0526893
	minimum = 0 (at node 1)
	maximum = 0.0832821 (at node 30)
Accepted flit rate average= 0.0526947
	minimum = 0 (at node 0)
	maximum = 0.323128 (at node 47)
Injected packet length average = 4.00008
Accepted packet length average = 4.00012
Total in-flight flits = 24 (24 measured)
latency change    = 4.7027e-05
throughput change = 0.000887781
Class 0:
Packet latency average = 20.0889
	minimum = 10
	maximum = 45
Network latency average = 19.9596
	minimum = 10
	maximum = 44
Slowest packet = 8705
Flit latency average = 16.606
	minimum = 7
	maximum = 41
Slowest flit = 150647
Fragmentation average = 0.694691
	minimum = 0
	maximum = 14
Injected packet rate average = 0.0131683
	minimum = 0 (at node 1)
	maximum = 0.0208608 (at node 30)
Accepted packet rate average = 0.0131677
	minimum = 0 (at node 0)
	maximum = 0.0806203 (at node 47)
Injected flit rate average = 0.0526742
	minimum = 0 (at node 1)
	maximum = 0.083443 (at node 30)
Accepted flit rate average= 0.0526727
	minimum = 0 (at node 0)
	maximum = 0.322519 (at node 47)
Injected packet length average = 4.00008
Accepted packet length average = 4.00014
Total in-flight flits = 59 (59 measured)
latency change    = 0.000125266
throughput change = 0.000418536
Class 0:
Packet latency average = 20.0895
	minimum = 10
	maximum = 45
Network latency average = 19.9603
	minimum = 10
	maximum = 44
Slowest packet = 8705
Flit latency average = 16.6069
	minimum = 7
	maximum = 41
Slowest flit = 150647
Fragmentation average = 0.694237
	minimum = 0
	maximum = 14
Injected packet rate average = 0.0131637
	minimum = 0 (at node 1)
	maximum = 0.020875 (at node 30)
Accepted packet rate average = 0.0131627
	minimum = 0 (at node 0)
	maximum = 0.0804875 (at node 47)
Injected flit rate average = 0.0526557
	minimum = 0 (at node 1)
	maximum = 0.0835 (at node 30)
Accepted flit rate average= 0.0526531
	minimum = 0 (at node 0)
	maximum = 0.32195 (at node 47)
Injected packet length average = 4.00007
Accepted packet length average = 4.00018
Total in-flight flits = 64 (64 measured)
latency change    = 3.0565e-05
throughput change = 0.00037113
Class 0:
Packet latency average = 20.0863
	minimum = 10
	maximum = 45
Network latency average = 19.9573
	minimum = 10
	maximum = 44
Slowest packet = 8705
Flit latency average = 16.6046
	minimum = 7
	maximum = 41
Slowest flit = 150647
Fragmentation average = 0.692982
	minimum = 0
	maximum = 14
Injected packet rate average = 0.0131568
	minimum = 0 (at node 1)
	maximum = 0.0209506 (at node 30)
Accepted packet rate average = 0.0131557
	minimum = 0 (at node 0)
	maximum = 0.0804198 (at node 47)
Injected flit rate average = 0.0526283
	minimum = 0 (at node 1)
	maximum = 0.0838025 (at node 30)
Accepted flit rate average= 0.0526242
	minimum = 0 (at node 0)
	maximum = 0.321679 (at node 47)
Injected packet length average = 4.00007
Accepted packet length average = 4.00012
Total in-flight flits = 72 (72 measured)
latency change    = 0.000159277
throughput change = 0.000549112
Class 0:
Packet latency average = 20.0845
	minimum = 10
	maximum = 45
Network latency average = 19.9558
	minimum = 10
	maximum = 44
Slowest packet = 8705
Flit latency average = 16.6028
	minimum = 7
	maximum = 41
Slowest flit = 150647
Fragmentation average = 0.693853
	minimum = 0
	maximum = 14
Injected packet rate average = 0.013165
	minimum = 0 (at node 1)
	maximum = 0.0209024 (at node 30)
Accepted packet rate average = 0.0131654
	minimum = 0 (at node 0)
	maximum = 0.080378 (at node 47)
Injected flit rate average = 0.0526608
	minimum = 0 (at node 1)
	maximum = 0.0836098 (at node 30)
Accepted flit rate average= 0.0526616
	minimum = 0 (at node 0)
	maximum = 0.321512 (at node 47)
Injected packet length average = 4.00006
Accepted packet length average = 4
Total in-flight flits = 48 (48 measured)
latency change    = 9.08711e-05
throughput change = 0.000709378
Class 0:
Packet latency average = 20.0844
	minimum = 10
	maximum = 45
Network latency average = 19.9559
	minimum = 10
	maximum = 44
Slowest packet = 8705
Flit latency average = 16.6031
	minimum = 7
	maximum = 41
Slowest flit = 150647
Fragmentation average = 0.693263
	minimum = 0
	maximum = 14
Injected packet rate average = 0.0131657
	minimum = 0 (at node 1)
	maximum = 0.0208313 (at node 30)
Accepted packet rate average = 0.0131659
	minimum = 0 (at node 0)
	maximum = 0.0803253 (at node 47)
Injected flit rate average = 0.0526642
	minimum = 0 (at node 1)
	maximum = 0.0833253 (at node 30)
Accepted flit rate average= 0.0526645
	minimum = 0 (at node 0)
	maximum = 0.321301 (at node 47)
Injected packet length average = 4.00011
Accepted packet length average = 4.00009
Total in-flight flits = 46 (46 measured)
latency change    = 3.12537e-06
throughput change = 5.59725e-05
Class 0:
Packet latency average = 20.0829
	minimum = 10
	maximum = 45
Network latency average = 19.9546
	minimum = 10
	maximum = 44
Slowest packet = 8705
Flit latency average = 16.602
	minimum = 7
	maximum = 41
Slowest flit = 150647
Fragmentation average = 0.693455
	minimum = 0
	maximum = 14
Injected packet rate average = 0.0131613
	minimum = 0 (at node 1)
	maximum = 0.0207381 (at node 30)
Accepted packet rate average = 0.0131611
	minimum = 0 (at node 0)
	maximum = 0.0804048 (at node 47)
Injected flit rate average = 0.0526445
	minimum = 0 (at node 1)
	maximum = 0.0829524 (at node 30)
Accepted flit rate average= 0.0526455
	minimum = 0 (at node 0)
	maximum = 0.321619 (at node 47)
Injected packet length average = 3.99996
Accepted packet length average = 4.00008
Total in-flight flits = 54 (54 measured)
latency change    = 7.60013e-05
throughput change = 0.000362269
Class 0:
Packet latency average = 20.0818
	minimum = 10
	maximum = 45
Network latency average = 19.9534
	minimum = 10
	maximum = 44
Slowest packet = 8705
Flit latency average = 16.6016
	minimum = 7
	maximum = 41
Slowest flit = 150647
Fragmentation average = 0.691938
	minimum = 0
	maximum = 14
Injected packet rate average = 0.0131612
	minimum = 0 (at node 1)
	maximum = 0.0207412 (at node 8)
Accepted packet rate average = 0.0131612
	minimum = 0 (at node 0)
	maximum = 0.0803176 (at node 47)
Injected flit rate average = 0.052645
	minimum = 0 (at node 1)
	maximum = 0.0829647 (at node 8)
Accepted flit rate average= 0.052646
	minimum = 0 (at node 0)
	maximum = 0.321271 (at node 47)
Injected packet length average = 4.00001
Accepted packet length average = 4.00008
Total in-flight flits = 50 (50 measured)
latency change    = 5.62642e-05
throughput change = 9.39432e-06
Class 0:
Packet latency average = 20.0829
	minimum = 10
	maximum = 45
Network latency average = 19.9542
	minimum = 10
	maximum = 44
Slowest packet = 8705
Flit latency average = 16.6024
	minimum = 7
	maximum = 41
Slowest flit = 150647
Fragmentation average = 0.691645
	minimum = 0
	maximum = 14
Injected packet rate average = 0.0131604
	minimum = 0 (at node 1)
	maximum = 0.0207093 (at node 30)
Accepted packet rate average = 0.0131608
	minimum = 0 (at node 0)
	maximum = 0.0805 (at node 47)
Injected flit rate average = 0.052643
	minimum = 0 (at node 1)
	maximum = 0.0828372 (at node 30)
Accepted flit rate average= 0.0526441
	minimum = 0 (at node 0)
	maximum = 0.322 (at node 47)
Injected packet length average = 4.0001
Accepted packet length average = 4.00007
Total in-flight flits = 43 (43 measured)
latency change    = 5.45337e-05
throughput change = 3.56896e-05
Class 0:
Packet latency average = 20.0835
	minimum = 10
	maximum = 45
Network latency average = 19.9546
	minimum = 10
	maximum = 44
Slowest packet = 8705
Flit latency average = 16.6024
	minimum = 7
	maximum = 41
Slowest flit = 150647
Fragmentation average = 0.692694
	minimum = 0
	maximum = 14
Injected packet rate average = 0.0131602
	minimum = 0 (at node 1)
	maximum = 0.0207126 (at node 30)
Accepted packet rate average = 0.0131615
	minimum = 0 (at node 0)
	maximum = 0.0804483 (at node 47)
Injected flit rate average = 0.0526422
	minimum = 0 (at node 1)
	maximum = 0.0828506 (at node 30)
Accepted flit rate average= 0.0526469
	minimum = 0 (at node 0)
	maximum = 0.321793 (at node 47)
Injected packet length average = 4.00011
Accepted packet length average = 4.00008
Total in-flight flits = 22 (22 measured)
latency change    = 2.98337e-05
throughput change = 5.38281e-05
Class 0:
Packet latency average = 20.0843
	minimum = 10
	maximum = 45
Network latency average = 19.9558
	minimum = 10
	maximum = 44
Slowest packet = 8705
Flit latency average = 16.6032
	minimum = 7
	maximum = 41
Slowest flit = 150647
Fragmentation average = 0.693195
	minimum = 0
	maximum = 14
Injected packet rate average = 0.0131555
	minimum = 0 (at node 1)
	maximum = 0.0207386 (at node 30)
Accepted packet rate average = 0.0131547
	minimum = 0 (at node 0)
	maximum = 0.0803182 (at node 47)
Injected flit rate average = 0.0526223
	minimum = 0 (at node 1)
	maximum = 0.0829545 (at node 30)
Accepted flit rate average= 0.05262
	minimum = 0 (at node 0)
	maximum = 0.321307 (at node 47)
Injected packet length average = 4.00001
Accepted packet length average = 4.00011
Total in-flight flits = 68 (68 measured)
latency change    = 4.16067e-05
throughput change = 0.00051088
Class 0:
Packet latency average = 20.0863
	minimum = 10
	maximum = 45
Network latency average = 19.9578
	minimum = 10
	maximum = 44
Slowest packet = 8705
Flit latency average = 16.6045
	minimum = 7
	maximum = 41
Slowest flit = 150647
Fragmentation average = 0.694602
	minimum = 0
	maximum = 14
Injected packet rate average = 0.013158
	minimum = 0 (at node 1)
	maximum = 0.0207978 (at node 30)
Accepted packet rate average = 0.0131582
	minimum = 0 (at node 0)
	maximum = 0.0802135 (at node 47)
Injected flit rate average = 0.052632
	minimum = 0 (at node 1)
	maximum = 0.083191 (at node 30)
Accepted flit rate average= 0.0526338
	minimum = 0 (at node 0)
	maximum = 0.320854 (at node 47)
Injected packet length average = 4
Accepted packet length average = 4.00008
Total in-flight flits = 46 (46 measured)
latency change    = 0.00010121
throughput change = 0.000261233
Class 0:
Packet latency average = 20.0885
	minimum = 10
	maximum = 45
Network latency average = 19.9596
	minimum = 10
	maximum = 44
Slowest packet = 8705
Flit latency average = 16.6056
	minimum = 7
	maximum = 41
Slowest flit = 150647
Fragmentation average = 0.695816
	minimum = 0
	maximum = 14
Injected packet rate average = 0.0131613
	minimum = 0 (at node 1)
	maximum = 0.0207556 (at node 30)
Accepted packet rate average = 0.0131609
	minimum = 0 (at node 0)
	maximum = 0.0803444 (at node 47)
Injected flit rate average = 0.0526464
	minimum = 0 (at node 1)
	maximum = 0.0830222 (at node 30)
Accepted flit rate average= 0.0526444
	minimum = 0 (at node 0)
	maximum = 0.321378 (at node 47)
Injected packet length average = 4.00009
Accepted packet length average = 4.00005
Total in-flight flits = 60 (60 measured)
latency change    = 0.000107667
throughput change = 0.000202611
total_phase: 100 _sim_state: 1 converged: 90
Draining remaining packets ...
Time taken is 100025 cycles
====== Overall Traffic Statistics ======
====== Traffic class 0 ======
Packet latency average = 20.0887 (1 samples)
	minimum = 10 (1 samples)
	maximum = 45 (1 samples)
Network latency average = 19.9598 (1 samples)
	minimum = 10 (1 samples)
	maximum = 44 (1 samples)
Flit latency average = 16.6059 (1 samples)
	minimum = 7 (1 samples)
	maximum = 41 (1 samples)
Fragmentation average = 0.695722 (1 samples)
	minimum = 0 (1 samples)
	maximum = 14 (1 samples)
Injected packet rate average = 0.0131613 (1 samples)
	minimum = 0 (1 samples)
	maximum = 0.0207556 (1 samples)
Accepted packet rate average = 0.0131609 (1 samples)
	minimum = 0 (1 samples)
	maximum = 0.0803444 (1 samples)
Injected flit rate average = 0.0526464 (1 samples)
	minimum = 0 (1 samples)
	maximum = 0.0830222 (1 samples)
Accepted flit rate average = 0.0526444 (1 samples)
	minimum = 0 (1 samples)
	maximum = 0.321378 (1 samples)
Injected packet size average = 4.00009 (1 samples)
Accepted packet size average = 4.00005 (1 samples)
Hops average = 2.66679 (1 samples)
FLOV hops average = 0.403778 (1 samples)
JIAYI PRINTOUT NETWORK
====== GREPING TIMES START ======
0 460382
1 15884
2 5391
3 10914
4 3513
5 3408
6 3167
7 3040
8 2828
9 2804
10 2673
11 2498
12 2420
13 2318
14 2153
15 2098
16 2054
17 2002
18 1828
19 1745
20 1704
21 1648
22 1607
23 1483
24 1431
25 1339
26 1295
27 1262
28 1235
29 1178
30 1120
31 1077
32 1021
33 1016
34 975
35 916
36 927
37 872
38 814
39 763
40 771
41 734
42 692
43 667
44 672
45 663
46 599
47 603
48 577
49 575
50 538
51 534
52 515
53 513
54 480
55 467
56 429
57 420
58 415
59 396
60 371
61 360
62 372
63 339
64 321
65 330
66 319
67 303
68 302
69 315
70 241
71 284
72 284
73 238
74 239
75 250
76 247
77 220
78 246
79 204
80 179
81 232
82 182
83 158
84 165
85 184
86 156
87 159
88 171
89 159
90 132
91 145
92 140
93 127
94 158
95 141
96 117
97 136
98 125
99 115
100 103
101 107
102 106
103 102
104 102
105 89
106 98
107 101
108 104
109 83
110 103
111 80
112 74
113 93
114 90
115 61
116 71
117 60
118 58
119 64
120 77
121 65
122 63
123 71
124 66
125 50
126 41
127 46
128 44
129 58
130 46
131 40
132 53
133 44
134 42
135 46
136 55
137 37
138 43
139 50
140 38
141 41
142 35
143 40
144 37
145 36
146 38
147 35
148 35
149 34
150 22
151 36
152 16
153 26
154 33
155 30
156 28
157 16
158 19
159 28
160 20
161 23
162 27
163 33
164 25
165 30
166 22
167 22
168 24
169 16
170 15
171 26
172 20
173 25
174 19
175 11
176 19
177 11
178 34
179 27
180 15
181 13
182 18
183 19
184 10
185 16
186 20
187 17
188 11
189 12
190 12
191 11
192 9
193 13
194 17
195 13
196 7
197 8
198 7
199 19
200 10
201 14
202 10
203 8
204 9
205 5
206 12
207 9
208 7
209 5
210 7
211 11
212 3
213 12
214 8
215 4
216 13
217 8
218 8
219 8
220 9
221 13
222 9
223 8
224 5
225 3
226 8
227 3
228 9
229 10
230 6
231 11
232 4
233 3
234 7
235 7
236 3
237 7
238 6
239 8
240 3
241 5
242 4
243 3
244 6
245 3
246 6
247 3
248 4
249 6
250 7
252 2
253 1
254 3
255 3
256 3
257 2
258 3
259 3
260 3
261 5
262 5
263 4
264 3
265 3
266 1
267 2
268 3
269 1
270 5
271 2
272 1
273 1
274 3
276 3
277 3
278 2
279 2
280 1
281 2
282 1
283 2
284 3
285 1
286 3
287 1
288 1
289 1
290 2
291 1
292 2
293 1
294 2
296 1
297 1
298 2
300 2
302 1
303 1
305 1
307 2
309 5
310 2
311 4
313 1
315 2
316 3
317 1
324 1
328 1
329 1
330 2
331 1
334 2
336 1
337 1
338 1
339 1
350 1
351 1
352 1
354 1
358 1
361 1
363 1
365 1
371 1
378 1
380 1
385 2
386 1
388 2
392 1
394 1
406 1
416 1
419 1
423 1
424 1
447 1
488 1
499 1
508 1
512 1
100025 21
0 drain: 0 0 0 -1 0 0
1 drain: 0 0 0 -1 0 0
2 drain: 1 0 0 4 4 4
3 drain: 0 0 0 -1 0 0
4 drain: 1 0 0 4 4 4
5 drain: 0 0 0 -1 0 0
6 drain: 0 0 0 -1 0 0
7 drain: 0 0 0 -1 0 0
8 drain: 0 0 0 -1 0 0
9 drain: 1 0 0 4 4 4
10 drain: 0 0 0 -1 0 0
11 drain: 0 0 0 -1 0 0
12 drain: 0 0 0 -1 0 0
13 drain: 1 0 0 4 4 4
14 drain: 0 0 0 -1 0 0
15 drain: 0 0 0 -1 0 0
16 drain: 0 0 0 -1 0 0
17 drain: 0 0 0 -1 0 0
18 drain: 1 0 0 4 4 4
19 drain: 2 0 0 8 8 8
20 drain: 0 0 0 -1 0 0
21 drain: 0 0 0 -1 0 0
22 drain: 0 0 0 -1 0 0
23 drain: 1 0 0 4 4 4
24 drain: 0 0 0 -1 0 0
25 drain: 0 0 0 -1 0 0
26 drain: 2 0 0 8 8 8
27 drain: 0 0 0 -1 0 0
28 drain: 0 0 0 -1 0 0
29 drain: 1 0 0 4 4 4
30 drain: 0 0 0 -1 0 0
31 drain: 0 0 0 -1 0 0
32 drain: 0 0 0 -1 0 0
33 drain: 0 0 0 -1 0 0
34 drain: 0 0 0 -1 0 0
35 drain: 0 0 0 -1 0 0
36 drain: 1 0 0 4 4 4
37 drain: 0 0 0 -1 0 0
38 drain: 0 0 0 -1 0 0
39 drain: 0 0 0 -1 0 0
40 drain: 0 0 0 -1 0 0
41 drain: 0 0 0 -1 0 0
42 drain: 1 0 0 4 4 4
43 drain: 2 0 0 8 8 8
44 drain: 0 0 0 -1 0 0
45 drain: 0 0 0 -1 0 0
46 drain: 0 0 0 -1 0 0
47 drain: 0 0 0 -1 0 0
48 drain: 0 0 0 -1 0 0
49 drain: 0 0 0 -1 0 0
50 drain: 0 0 0 -1 0 0
51 drain: 0 0 0 -1 0 0
52 drain: 0 0 0 -1 0 0
53 drain: 1 0 0 4 4 4
54 drain: 0 0 0 -1 0 0
55 drain: 0 0 0 -1 0 0
56 drain: 0 0 0 -1 0 0
57 drain: 0 0 0 -1 0 0
58 drain: 0 0 0 -1 0 0
59 drain: 0 0 0 -1 0 0
60 drain: 0 0 0 -1 0 0
61 drain: 0 0 0 -1 0 0
62 drain: 0 0 0 -1 0 0
63 drain: 0 0 0 -1 0 0
drain_distribution: 4 10
drain_distribution: 8 3
sleep routers # 0 : 5
sleep routers # 10 : 10
sleep routers # 13 : 100010
total  counts : 581600
total periods w/o mc: 5.6014e+06
total periods with mc counted: 6.4016e+06
total drain counts and timeouts is 16 0
overall drain time stats: min-avg-max 0 4 8
average sleep routers per cycle is 12.9991
====== GREPING END ======
Total run time 14.0952
-----------------------------------------
DSENT Power Model
- Kernel OCN Power Summary
- Completion Time (cycle):  100025
- Flit Widths:              128
---
- Link Dynamic Power:       0.0587791
- Link Leakage Power:       0.0170358
---
- Buffer Read Power:        0.0566544
- Buffer Write Power:       0.0606267
- Buffer Dynamic Power:     0.117281
- Buffer Leakage Power:     1.67182
---
- Switch Dynamic Power:     0.00211977
- Switch Leakage Power:     0.0173358
---
- Crossbar Dynamic Power:   0.021378
- Crossbar Leakage Power:   0.118242
---
- Clk Dynamic Power:        0.068518
- Clk Static Power:         0.00103649
---
- Power Gating Overhead:    0
---
- NoC Power (Including links):
- Total Dynamic Power:      0.268076
- Total Leakage Power:      1.82547
- Total PowerGate Overhead: 0
- Total Power:              2.09355
- PG Overhead Portion:      0
- Leakage Portion:          87.1951%
---
- Routers Power (Excluding links):
- Total Dynamic Power:      0.209297
- Total Leakage Power:      1.80843
- Total PowerGate Overhead: 0
- Total Power:              2.01773
- PG Overhead Portion:      0%
- Leakage Portion:          89.6271%
-----------------------------------------
-----------------------------------------
- Application Total OCN Power Summary
- Completion Time (cycle):  100025
- Flit Widths:              128
---
- Link Dynamic Power:       0.0587791
- Link Leakage Power:       0.0170358
---
- Buffer Read Power:        0.0566544
- Buffer Write Power:       0.0606267
- Buffer Leakage Power:     1.67182
---
- Switch Dynamic Power:     0.00211977
- Switch Leakage Power:     0.0173358
---
- Crossbar Dynamic Power:   0.021378
- Crossbar Leakage Power:   0.118242
---
- Clk Dynamic Power:        0.068518
- Clk Static Power:         0.00103649
---
- Power Gating Overhead:    0
---
- NoC Power (Including links):
- Total Dynamic Power:      0.268076
- Total Leakage Power:      1.82547
- Total PowerGate Overhead: 0
- Total Power:              2.09355
- PG Overhea Portion:       0%
- Leakage Portion:          87.1951%
---
- Routers Power (Excluding links):
- Total Dynamic Power:      0.209297
- Total Leakage Power:      1.80843
- Total PowerGate Power:    0
- Total Power:              2.01773
- PG Overhead Portion:      0%
- Leakage Portion:          89.6271%
-----------------------------------------
