BEGIN Configuration File: meshconfig
//
// Flow control
//

channel_width = 256;

watch_out = -;
//watch_flits = {2};
//watch_packets = {28404};

num_vcs     = 4;
vc_buf_size = 4;

wait_for_tail_credit = 0;


vc_allocator = select; 
sw_allocator = select;
alloc_iters  = 1;

credit_delay   = 0;
routing_delay  = 1; //0;
vc_alloc_delay = 1;
sw_alloc_delay = 1;
st_final_delay = 1;

input_speedup     = 1;
output_speedup    = 1;
internal_speedup  = 1.0;


// Traffic
sim_type = throughput;

injection_rate_uses_flits = 1;
injection_rate = 0.05; 

warmup_periods = 10;
sample_period  = 1000;  
sim_count          = 1;
max_samples = 100;

traffic       = uniform;
latency_thres = 2000.0;

// Jiayi
injection_process = on_off;

topology = mesh;
k  = 8;
n  = 2;

// Routing
routing_function = dor;
priority = none;

mem_cycle_on = 1; reply_from_MC_only = 1; request_from_MC = 0; // GPU network
//mem_cycle_on = 0; reply_from_MC_only = 0; request_from_MC = 1; // CMP network

request_yx = 0; reply_yx = 0; // XY routing
//request_yx = 1; reply_yx = 1; // YX routing
//request_yx = 0; reply_yx = 1; // XY-YX routing

//speculative = 1;

packet_size = 4;

use_read_write = {1}; // 1;
write_fraction = 0.1;


read_request_size = 1;
write_request_size = 3;
read_reply_size = 5;
write_reply_size = 1;

read_request_begin_vc = 0;
read_request_end_vc = 1;
write_request_begin_vc = 0;
write_request_end_vc = 1;
read_reply_begin_vc = 2;
read_reply_end_vc = 3;
write_reply_begin_vc = 2;
write_reply_end_vc = 3;


// Jiayi, Power
sim_power = 1;
power_output_file = power_output.txt;
tech_file = ./power/techfile.txt;

dsent_model = 1;

// 45 nm technology node
// default in booksim_config.cpp is 22 nm,
// to use 22 nm para, comment out belows
energy_per_buffwrite = 8.54372e-13;
energy_per_buffread = 6.83154e-13;
energy_traverse_xbar = 5.47529e-13;
energy_per_arbitratestage1 = 1.38384e-14;
energy_per_arbitratestage2 = 1.3333e-13;
energy_distribute_clk = 3.16999e-13;
energy_rr_link_traversal = 1.29159e-12;
energy_rs_link_traversal = 3.63293e-14;
input_leak = 0.000628598;
switch_leak = 0.000277782;
xbar_leak = 0.000422101;
xbar_sel_dff_leak = 2.44238e-05;
clk_tree_leak = 7.59597e-06;
pipeline_reg0_leak = 1.62825e-06;
pipeline_reg1_leak = 1.62825e-06;
pipeline_reg2_part_leak = 1.62825e-06;
rr_link_leak = 1.38678e-05;
rs_link_leak = 1.3868e-05;

END Configuration File: meshconfig
Class 0:
Packet latency average = 63.0332
	minimum = 12
	maximum = 213
Network latency average = 45.6369
	minimum = 12
	maximum = 130
Slowest packet = 27
Flit latency average = 44.9673
	minimum = 11
	maximum = 125
Slowest flit = 2248
Fragmentation average = 0.604772
	minimum = 0
	maximum = 4
Injected packet rate average = 0.0155937
	minimum = 0.005 (at node 14)
	maximum = 0.063 (at node 61)
Accepted packet rate average = 0.0150625
	minimum = 0.003 (at node 0)
	maximum = 0.074 (at node 61)
Injected flit rate average = 0.0423594
	minimum = 0.005 (at node 14)
	maximum = 0.298 (at node 61)
Accepted flit rate average= 0.0410469
	minimum = 0.011 (at node 28)
	maximum = 0.089 (at node 57)
Injected packet length average = 2.71643
Accepted packet length average = 2.7251
Total in-flight flits = 93 (0 measured)
latency change    = 1
throughput change = 1
Class 0:
Packet latency average = 64.34
	minimum = 12
	maximum = 224
Network latency average = 45.8332
	minimum = 12
	maximum = 130
Slowest packet = 27
Flit latency average = 45.0664
	minimum = 11
	maximum = 125
Slowest flit = 2248
Fragmentation average = 0.615122
	minimum = 0
	maximum = 4
Injected packet rate average = 0.0164609
	minimum = 0.0065 (at node 43)
	maximum = 0.0675 (at node 59)
Accepted packet rate average = 0.0160156
	minimum = 0.005 (at node 35)
	maximum = 0.0735 (at node 61)
Injected flit rate average = 0.0461172
	minimum = 0.0065 (at node 43)
	maximum = 0.3095 (at node 59)
Accepted flit rate average= 0.0448281
	minimum = 0.021 (at node 35)
	maximum = 0.089 (at node 56)
Injected packet length average = 2.80161
Accepted packet length average = 2.79902
Total in-flight flits = 171 (0 measured)
latency change    = 0.0203109
throughput change = 0.0843499
Class 0:
Packet latency average = 68.3693
	minimum = 12
	maximum = 214
Network latency average = 46.6976
	minimum = 12
	maximum = 125
Slowest packet = 2016
Flit latency average = 45.905
	minimum = 11
	maximum = 119
Slowest flit = 7899
Fragmentation average = 0.650794
	minimum = 0
	maximum = 5
Injected packet rate average = 0.0184531
	minimum = 0.005 (at node 7)
	maximum = 0.087 (at node 63)
Accepted packet rate average = 0.0187031
	minimum = 0.005 (at node 7)
	maximum = 0.088 (at node 63)
Injected flit rate average = 0.0525469
	minimum = 0.005 (at node 7)
	maximum = 0.385 (at node 56)
Accepted flit rate average= 0.0532969
	minimum = 0.017 (at node 16)
	maximum = 0.118 (at node 63)
Injected packet length average = 2.84759
Accepted packet length average = 2.84962
Total in-flight flits = 123 (0 measured)
latency change    = 0.0589337
throughput change = 0.158898
Class 0:
Packet latency average = 67.19
	minimum = 12
	maximum = 231
Network latency average = 45.9544
	minimum = 12
	maximum = 152
Slowest packet = 2016
Flit latency average = 45.0822
	minimum = 11
	maximum = 147
Slowest flit = 9003
Fragmentation average = 0.646775
	minimum = 0
	maximum = 5
Injected packet rate average = 0.0177734
	minimum = 0.005 (at node 7)
	maximum = 0.08 (at node 56)
Accepted packet rate average = 0.0178047
	minimum = 0.0055 (at node 7)
	maximum = 0.082 (at node 63)
Injected flit rate average = 0.051375
	minimum = 0.006 (at node 7)
	maximum = 0.356 (at node 56)
Accepted flit rate average= 0.0513281
	minimum = 0.0255 (at node 7)
	maximum = 0.102 (at node 63)
Injected packet length average = 2.89055
Accepted packet length average = 2.88284
Total in-flight flits = 180 (0 measured)
latency change    = 0.0175511
throughput change = 0.0383562
Class 0:
Packet latency average = 63.0845
	minimum = 12
	maximum = 232
Network latency average = 45.1287
	minimum = 12
	maximum = 122
Slowest packet = 4330
Flit latency average = 44.3507
	minimum = 11
	maximum = 117
Slowest flit = 13027
Fragmentation average = 0.649376
	minimum = 0
	maximum = 4
Injected packet rate average = 0.0161406
	minimum = 0.005 (at node 14)
	maximum = 0.077 (at node 62)
Accepted packet rate average = 0.0162656
	minimum = 0.003 (at node 26)
	maximum = 0.074 (at node 57)
Injected flit rate average = 0.0469844
	minimum = 0.005 (at node 14)
	maximum = 0.357 (at node 62)
Accepted flit rate average= 0.0477656
	minimum = 0.015 (at node 26)
	maximum = 0.09 (at node 57)
Injected packet length average = 2.91094
Accepted packet length average = 2.9366
Total in-flight flits = 128 (0 measured)
latency change    = 0.0650787
throughput change = 0.0745829
Class 0:
Packet latency average = 63.3844
	minimum = 12
	maximum = 232
Network latency average = 44.9573
	minimum = 12
	maximum = 122
Slowest packet = 4330
Flit latency average = 43.9439
	minimum = 11
	maximum = 117
Slowest flit = 13027
Fragmentation average = 0.65401
	minimum = 0
	maximum = 4
Injected packet rate average = 0.0164297
	minimum = 0.005 (at node 23)
	maximum = 0.0755 (at node 57)
Accepted packet rate average = 0.0164609
	minimum = 0.0055 (at node 39)
	maximum = 0.0765 (at node 57)
Injected flit rate average = 0.0478203
	minimum = 0.006 (at node 23)
	maximum = 0.348 (at node 57)
Accepted flit rate average= 0.0481719
	minimum = 0.0275 (at node 39)
	maximum = 0.0925 (at node 57)
Injected packet length average = 2.9106
Accepted packet length average = 2.92644
Total in-flight flits = 139 (0 measured)
latency change    = 0.00473143
throughput change = 0.00843334
Class 0:
Packet latency average = 65.8122
	minimum = 12
	maximum = 221
Network latency average = 46.0647
	minimum = 12
	maximum = 126
Slowest packet = 6436
Flit latency average = 45.4488
	minimum = 12
	maximum = 121
Slowest flit = 19989
Fragmentation average = 0.638618
	minimum = 0
	maximum = 4
Injected packet rate average = 0.017625
	minimum = 0.004 (at node 41)
	maximum = 0.079 (at node 58)
Accepted packet rate average = 0.0176406
	minimum = 0.001 (at node 41)
	maximum = 0.092 (at node 58)
Injected flit rate average = 0.0507344
	minimum = 0.004 (at node 41)
	maximum = 0.353 (at node 58)
Accepted flit rate average= 0.0503437
	minimum = 0.005 (at node 41)
	maximum = 0.12 (at node 58)
Injected packet length average = 2.87855
Accepted packet length average = 2.85385
Total in-flight flits = 155 (0 measured)
latency change    = 0.0368897
throughput change = 0.0431409
Class 0:
Packet latency average = 67.4183
	minimum = 12
	maximum = 240
Network latency average = 46.641
	minimum = 12
	maximum = 126
Slowest packet = 6436
Flit latency average = 45.8035
	minimum = 11
	maximum = 122
Slowest flit = 24455
Fragmentation average = 0.637555
	minimum = 0
	maximum = 4
Injected packet rate average = 0.0178281
	minimum = 0.005 (at node 41)
	maximum = 0.0795 (at node 58)
Accepted packet rate average = 0.0178906
	minimum = 0.0045 (at node 41)
	maximum = 0.084 (at node 58)
Injected flit rate average = 0.0513438
	minimum = 0.007 (at node 13)
	maximum = 0.3585 (at node 58)
Accepted flit rate average= 0.0513594
	minimum = 0.0185 (at node 41)
	maximum = 0.107 (at node 58)
Injected packet length average = 2.87993
Accepted packet length average = 2.87074
Total in-flight flits = 131 (0 measured)
latency change    = 0.0238232
throughput change = 0.0197749
Class 0:
Packet latency average = 68.9302
	minimum = 12
	maximum = 220
Network latency average = 47.5599
	minimum = 12
	maximum = 117
Slowest packet = 8740
Flit latency average = 46.9082
	minimum = 11
	maximum = 112
Slowest flit = 27068
Fragmentation average = 0.627046
	minimum = 0
	maximum = 5
Injected packet rate average = 0.0185469
	minimum = 0.006 (at node 36)
	maximum = 0.086 (at node 58)
Accepted packet rate average = 0.0181406
	minimum = 0.005 (at node 15)
	maximum = 0.088 (at node 56)
Injected flit rate average = 0.0527656
	minimum = 0.006 (at node 36)
	maximum = 0.397 (at node 58)
Accepted flit rate average= 0.05175
	minimum = 0.021 (at node 15)
	maximum = 0.105 (at node 61)
Injected packet length average = 2.84499
Accepted packet length average = 2.85271
Total in-flight flits = 204 (0 measured)
latency change    = 0.0219337
throughput change = 0.00754831
Class 0:
Packet latency average = 70.965
	minimum = 12
	maximum = 265
Network latency average = 47.635
	minimum = 12
	maximum = 170
Slowest packet = 8740
Flit latency average = 47.3257
	minimum = 11
	maximum = 165
Slowest flit = 28453
Fragmentation average = 0.639744
	minimum = 0
	maximum = 5
Injected packet rate average = 0.0182891
	minimum = 0.007 (at node 27)
	maximum = 0.08 (at node 58)
Accepted packet rate average = 0.0182812
	minimum = 0.006 (at node 22)
	maximum = 0.083 (at node 61)
Injected flit rate average = 0.0527188
	minimum = 0.0075 (at node 53)
	maximum = 0.3815 (at node 58)
Accepted flit rate average= 0.0525078
	minimum = 0.028 (at node 22)
	maximum = 0.104 (at node 61)
Injected packet length average = 2.88253
Accepted packet length average = 2.87222
Total in-flight flits = 161 (0 measured)
latency change    = 0.0286722
throughput change = 0.0144324
Warmed up ...Time used is 10000 cycles
Class 0:
Packet latency average = 69.0009
	minimum = 12
	maximum = 251
Network latency average = 45.2417
	minimum = 12
	maximum = 118
Slowest packet = 11110
Flit latency average = 44.1187
	minimum = 11
	maximum = 139
Slowest flit = 31527
Fragmentation average = 0.704963
	minimum = 0
	maximum = 4
Injected packet rate average = 0.018
	minimum = 0.002 (at node 50)
	maximum = 0.082 (at node 61)
Accepted packet rate average = 0.0176562
	minimum = 0.004 (at node 9)
	maximum = 0.078 (at node 63)
Injected flit rate average = 0.0530313
	minimum = 0.002 (at node 50)
	maximum = 0.398 (at node 61)
Accepted flit rate average= 0.0527969
	minimum = 0.02 (at node 9)
	maximum = 0.096 (at node 63)
Injected packet length average = 2.94618
Accepted packet length average = 2.99027
Total in-flight flits = 170 (170 measured)
latency change    = 0.0284639
throughput change = 0.00547499
Class 0:
Packet latency average = 67.92
	minimum = 12
	maximum = 251
Network latency average = 46.3864
	minimum = 12
	maximum = 127
Slowest packet = 11110
Flit latency average = 45.4892
	minimum = 11
	maximum = 139
Slowest flit = 31527
Fragmentation average = 0.699503
	minimum = 0
	maximum = 5
Injected packet rate average = 0.0176797
	minimum = 0.0055 (at node 9)
	maximum = 0.0775 (at node 63)
Accepted packet rate average = 0.0176172
	minimum = 0.0035 (at node 9)
	maximum = 0.077 (at node 63)
Injected flit rate average = 0.0515625
	minimum = 0.0065 (at node 9)
	maximum = 0.371 (at node 61)
Accepted flit rate average= 0.0516172
	minimum = 0.0155 (at node 9)
	maximum = 0.093 (at node 63)
Injected packet length average = 2.91648
Accepted packet length average = 2.92993
Total in-flight flits = 151 (151 measured)
latency change    = 0.0159143
throughput change = 0.0228545
Class 0:
Packet latency average = 68.4851
	minimum = 12
	maximum = 271
Network latency average = 46.7696
	minimum = 12
	maximum = 151
Slowest packet = 11110
Flit latency average = 46.1189
	minimum = 11
	maximum = 146
Slowest flit = 39290
Fragmentation average = 0.680109
	minimum = 0
	maximum = 5
Injected packet rate average = 0.0175156
	minimum = 0.00633333 (at node 44)
	maximum = 0.0743333 (at node 63)
Accepted packet rate average = 0.0173958
	minimum = 0.00666667 (at node 1)
	maximum = 0.077 (at node 57)
Injected flit rate average = 0.0509688
	minimum = 0.007 (at node 44)
	maximum = 0.347333 (at node 63)
Accepted flit rate average= 0.0508542
	minimum = 0.0293333 (at node 1)
	maximum = 0.0903333 (at node 57)
Injected packet length average = 2.9099
Accepted packet length average = 2.92335
Total in-flight flits = 180 (180 measured)
latency change    = 0.00825178
throughput change = 0.0150041
Class 0:
Packet latency average = 71.1952
	minimum = 12
	maximum = 315
Network latency average = 46.6851
	minimum = 12
	maximum = 151
Slowest packet = 11110
Flit latency average = 46.0017
	minimum = 11
	maximum = 146
Slowest flit = 39290
Fragmentation average = 0.676438
	minimum = 0
	maximum = 5
Injected packet rate average = 0.0178008
	minimum = 0.00725 (at node 17)
	maximum = 0.078 (at node 61)
Accepted packet rate average = 0.0177539
	minimum = 0.00725 (at node 24)
	maximum = 0.076 (at node 57)
Injected flit rate average = 0.0520313
	minimum = 0.00825 (at node 17)
	maximum = 0.37025 (at node 61)
Accepted flit rate average= 0.0520352
	minimum = 0.03375 (at node 1)
	maximum = 0.09 (at node 57)
Injected packet length average = 2.92298
Accepted packet length average = 2.93091
Total in-flight flits = 157 (157 measured)
latency change    = 0.0380652
throughput change = 0.022696
Class 0:
Packet latency average = 69.9828
	minimum = 12
	maximum = 315
Network latency average = 46.5094
	minimum = 12
	maximum = 151
Slowest packet = 11110
Flit latency average = 45.6695
	minimum = 11
	maximum = 146
Slowest flit = 39290
Fragmentation average = 0.675971
	minimum = 0
	maximum = 5
Injected packet rate average = 0.0176344
	minimum = 0.0066 (at node 17)
	maximum = 0.0758 (at node 61)
Accepted packet rate average = 0.0175969
	minimum = 0.0066 (at node 17)
	maximum = 0.075 (at node 57)
Injected flit rate average = 0.0514563
	minimum = 0.0074 (at node 17)
	maximum = 0.3558 (at node 61)
Accepted flit rate average= 0.0514344
	minimum = 0.0302 (at node 21)
	maximum = 0.0878 (at node 57)
Injected packet length average = 2.91795
Accepted packet length average = 2.92293
Total in-flight flits = 165 (165 measured)
latency change    = 0.017324
throughput change = 0.0116805
Class 0:
Packet latency average = 70.4171
	minimum = 12
	maximum = 315
Network latency average = 46.8753
	minimum = 12
	maximum = 154
Slowest packet = 11110
Flit latency average = 46.1702
	minimum = 11
	maximum = 149
Slowest flit = 48288
Fragmentation average = 0.680328
	minimum = 0
	maximum = 5
Injected packet rate average = 0.0176224
	minimum = 0.00716667 (at node 17)
	maximum = 0.0743333 (at node 61)
Accepted packet rate average = 0.0175833
	minimum = 0.00683333 (at node 17)
	maximum = 0.0733333 (at node 57)
Injected flit rate average = 0.0512865
	minimum = 0.00783333 (at node 17)
	maximum = 0.345 (at node 61)
Accepted flit rate average= 0.0513177
	minimum = 0.0328333 (at node 17)
	maximum = 0.087 (at node 57)
Injected packet length average = 2.9103
Accepted packet length average = 2.91854
Total in-flight flits = 150 (150 measured)
latency change    = 0.00616775
throughput change = 0.00227342
Class 0:
Packet latency average = 70.8447
	minimum = 12
	maximum = 315
Network latency average = 47.0008
	minimum = 12
	maximum = 178
Slowest packet = 11110
Flit latency average = 46.3524
	minimum = 11
	maximum = 173
Slowest flit = 53942
Fragmentation average = 0.676344
	minimum = 0
	maximum = 5
Injected packet rate average = 0.017721
	minimum = 0.00657143 (at node 17)
	maximum = 0.0742857 (at node 61)
Accepted packet rate average = 0.0177009
	minimum = 0.00685714 (at node 17)
	maximum = 0.0738571 (at node 61)
Injected flit rate average = 0.0515781
	minimum = 0.00714286 (at node 17)
	maximum = 0.343 (at node 61)
Accepted flit rate average= 0.0515536
	minimum = 0.0331429 (at node 17)
	maximum = 0.0881429 (at node 61)
Injected packet length average = 2.91057
Accepted packet length average = 2.91248
Total in-flight flits = 172 (172 measured)
latency change    = 0.0060352
throughput change = 0.00457511
Class 0:
Packet latency average = 70.1166
	minimum = 12
	maximum = 315
Network latency average = 46.8423
	minimum = 12
	maximum = 178
Slowest packet = 11110
Flit latency average = 46.1334
	minimum = 11
	maximum = 173
Slowest flit = 53942
Fragmentation average = 0.671422
	minimum = 0
	maximum = 5
Injected packet rate average = 0.0177715
	minimum = 0.007 (at node 17)
	maximum = 0.0745 (at node 63)
Accepted packet rate average = 0.0177422
	minimum = 0.007125 (at node 17)
	maximum = 0.074375 (at node 63)
Injected flit rate average = 0.0516309
	minimum = 0.00775 (at node 17)
	maximum = 0.345875 (at node 63)
Accepted flit rate average= 0.051584
	minimum = 0.034125 (at node 17)
	maximum = 0.088125 (at node 63)
Injected packet length average = 2.90526
Accepted packet length average = 2.90742
Total in-flight flits = 185 (185 measured)
latency change    = 0.0103846
throughput change = 0.000589581
Class 0:
Packet latency average = 70.1533
	minimum = 12
	maximum = 315
Network latency average = 46.9211
	minimum = 12
	maximum = 178
Slowest packet = 11110
Flit latency average = 46.2656
	minimum = 11
	maximum = 173
Slowest flit = 53942
Fragmentation average = 0.671217
	minimum = 0
	maximum = 5
Injected packet rate average = 0.0177743
	minimum = 0.00677778 (at node 17)
	maximum = 0.0757778 (at node 63)
Accepted packet rate average = 0.0177517
	minimum = 0.00688889 (at node 17)
	maximum = 0.0756667 (at node 63)
Injected flit rate average = 0.0517101
	minimum = 0.00744444 (at node 17)
	maximum = 0.351778 (at node 63)
Accepted flit rate average= 0.0516597
	minimum = 0.0331111 (at node 17)
	maximum = 0.0901111 (at node 63)
Injected packet length average = 2.90926
Accepted packet length average = 2.91012
Total in-flight flits = 183 (183 measured)
latency change    = 0.000523533
throughput change = 0.00146609
Class 0:
Packet latency average = 69.7274
	minimum = 12
	maximum = 315
Network latency average = 46.9593
	minimum = 12
	maximum = 178
Slowest packet = 11110
Flit latency average = 46.3209
	minimum = 11
	maximum = 173
Slowest flit = 53942
Fragmentation average = 0.665253
	minimum = 0
	maximum = 5
Injected packet rate average = 0.017775
	minimum = 0.0075 (at node 17)
	maximum = 0.0745 (at node 63)
Accepted packet rate average = 0.0177469
	minimum = 0.0072 (at node 17)
	maximum = 0.0748 (at node 63)
Injected flit rate average = 0.0514969
	minimum = 0.0081 (at node 17)
	maximum = 0.3452 (at node 63)
Accepted flit rate average= 0.0514734
	minimum = 0.0348 (at node 17)
	maximum = 0.0892 (at node 63)
Injected packet length average = 2.89715
Accepted packet length average = 2.90042
Total in-flight flits = 178 (178 measured)
latency change    = 0.00610833
throughput change = 0.00361905
Class 0:
Packet latency average = 70.2168
	minimum = 12
	maximum = 315
Network latency average = 47.0831
	minimum = 12
	maximum = 178
Slowest packet = 11110
Flit latency average = 46.5074
	minimum = 11
	maximum = 173
Slowest flit = 53942
Fragmentation average = 0.671599
	minimum = 0
	maximum = 6
Injected packet rate average = 0.0177187
	minimum = 0.00754545 (at node 17)
	maximum = 0.0739091 (at node 63)
Accepted packet rate average = 0.0177244
	minimum = 0.00772727 (at node 17)
	maximum = 0.0743636 (at node 63)
Injected flit rate average = 0.0514702
	minimum = 0.00809091 (at node 17)
	maximum = 0.343364 (at node 63)
Accepted flit rate average= 0.0515142
	minimum = 0.0375455 (at node 1)
	maximum = 0.0881818 (at node 63)
Injected packet length average = 2.90484
Accepted packet length average = 2.9064
Total in-flight flits = 123 (123 measured)
latency change    = 0.00697003
throughput change = 0.000791375
Class 0:
Packet latency average = 70.3043
	minimum = 12
	maximum = 315
Network latency average = 47.2146
	minimum = 12
	maximum = 178
Slowest packet = 11110
Flit latency average = 46.6661
	minimum = 11
	maximum = 173
Slowest flit = 53942
Fragmentation average = 0.672253
	minimum = 0
	maximum = 6
Injected packet rate average = 0.0176966
	minimum = 0.00808333 (at node 17)
	maximum = 0.0745833 (at node 63)
Accepted packet rate average = 0.0176901
	minimum = 0.00766667 (at node 17)
	maximum = 0.0743333 (at node 63)
Injected flit rate average = 0.0514141
	minimum = 0.00891667 (at node 17)
	maximum = 0.346333 (at node 63)
Accepted flit rate average= 0.0513919
	minimum = 0.037 (at node 17)
	maximum = 0.088 (at node 63)
Injected packet length average = 2.9053
Accepted packet length average = 2.90512
Total in-flight flits = 177 (177 measured)
latency change    = 0.00124427
throughput change = 0.00237931
Class 0:
Packet latency average = 70.542
	minimum = 12
	maximum = 329
Network latency average = 47.2441
	minimum = 12
	maximum = 178
Slowest packet = 11110
Flit latency average = 46.7148
	minimum = 11
	maximum = 173
Slowest flit = 53942
Fragmentation average = 0.673689
	minimum = 0
	maximum = 6
Injected packet rate average = 0.0177031
	minimum = 0.00792308 (at node 17)
	maximum = 0.0745385 (at node 63)
Accepted packet rate average = 0.0176791
	minimum = 0.00776923 (at node 17)
	maximum = 0.0740769 (at node 63)
Injected flit rate average = 0.0514712
	minimum = 0.00869231 (at node 17)
	maximum = 0.346 (at node 63)
Accepted flit rate average= 0.0514255
	minimum = 0.0373077 (at node 17)
	maximum = 0.0874615 (at node 63)
Injected packet length average = 2.90746
Accepted packet length average = 2.90883
Total in-flight flits = 206 (206 measured)
latency change    = 0.00336959
throughput change = 0.000652472
Class 0:
Packet latency average = 70.9501
	minimum = 12
	maximum = 342
Network latency average = 47.2353
	minimum = 12
	maximum = 178
Slowest packet = 11110
Flit latency average = 46.7183
	minimum = 11
	maximum = 173
Slowest flit = 53942
Fragmentation average = 0.676137
	minimum = 0
	maximum = 6
Injected packet rate average = 0.0177009
	minimum = 0.00821429 (at node 17)
	maximum = 0.0741429 (at node 63)
Accepted packet rate average = 0.0176842
	minimum = 0.00821429 (at node 17)
	maximum = 0.0739286 (at node 63)
Injected flit rate average = 0.0514475
	minimum = 0.00935714 (at node 17)
	maximum = 0.344143 (at node 63)
Accepted flit rate average= 0.0514353
	minimum = 0.0390714 (at node 17)
	maximum = 0.0875 (at node 63)
Injected packet length average = 2.90649
Accepted packet length average = 2.90855
Total in-flight flits = 169 (169 measured)
latency change    = 0.00575204
throughput change = 0.00019028
Class 0:
Packet latency average = 72.1805
	minimum = 12
	maximum = 401
Network latency average = 47.4662
	minimum = 12
	maximum = 178
Slowest packet = 11110
Flit latency average = 47.0565
	minimum = 11
	maximum = 173
Slowest flit = 53942
Fragmentation average = 0.679979
	minimum = 0
	maximum = 6
Injected packet rate average = 0.0177354
	minimum = 0.0086 (at node 17)
	maximum = 0.0746667 (at node 63)
Accepted packet rate average = 0.0177281
	minimum = 0.00833333 (at node 17)
	maximum = 0.0744667 (at node 63)
Injected flit rate average = 0.0515635
	minimum = 0.00993333 (at node 17)
	maximum = 0.345933 (at node 63)
Accepted flit rate average= 0.0515458
	minimum = 0.0392667 (at node 17)
	maximum = 0.0883333 (at node 63)
Injected packet length average = 2.90738
Accepted packet length average = 2.90757
Total in-flight flits = 181 (181 measured)
latency change    = 0.0170471
throughput change = 0.00214499
Class 0:
Packet latency average = 72.0674
	minimum = 12
	maximum = 401
Network latency average = 47.3025
	minimum = 12
	maximum = 178
Slowest packet = 11110
Flit latency average = 46.8104
	minimum = 11
	maximum = 173
Slowest flit = 53942
Fragmentation average = 0.681539
	minimum = 0
	maximum = 6
Injected packet rate average = 0.017709
	minimum = 0.00875 (at node 39)
	maximum = 0.0743125 (at node 63)
Accepted packet rate average = 0.0177041
	minimum = 0.0088125 (at node 17)
	maximum = 0.074 (at node 63)
Injected flit rate average = 0.0515186
	minimum = 0.0100625 (at node 17)
	maximum = 0.344562 (at node 63)
Accepted flit rate average= 0.051543
	minimum = 0.0410625 (at node 51)
	maximum = 0.08775 (at node 63)
Injected packet length average = 2.90918
Accepted packet length average = 2.91136
Total in-flight flits = 129 (129 measured)
latency change    = 0.00156995
throughput change = 5.55766e-05
Class 0:
Packet latency average = 71.894
	minimum = 12
	maximum = 401
Network latency average = 47.2577
	minimum = 12
	maximum = 178
Slowest packet = 11110
Flit latency average = 46.7487
	minimum = 11
	maximum = 173
Slowest flit = 53942
Fragmentation average = 0.679517
	minimum = 0
	maximum = 6
Injected packet rate average = 0.0177059
	minimum = 0.00888235 (at node 17)
	maximum = 0.0739412 (at node 63)
Accepted packet rate average = 0.017705
	minimum = 0.00882353 (at node 17)
	maximum = 0.0739412 (at node 63)
Injected flit rate average = 0.0514568
	minimum = 0.0102941 (at node 17)
	maximum = 0.342529 (at node 61)
Accepted flit rate average= 0.0514706
	minimum = 0.0404118 (at node 51)
	maximum = 0.0879412 (at node 63)
Injected packet length average = 2.9062
Accepted packet length average = 2.90713
Total in-flight flits = 139 (139 measured)
latency change    = 0.00241225
throughput change = 0.00140625
Class 0:
Packet latency average = 71.9159
	minimum = 12
	maximum = 401
Network latency average = 47.2722
	minimum = 12
	maximum = 178
Slowest packet = 11110
Flit latency average = 46.7661
	minimum = 11
	maximum = 173
Slowest flit = 53942
Fragmentation average = 0.680402
	minimum = 0
	maximum = 6
Injected packet rate average = 0.0177387
	minimum = 0.009 (at node 17)
	maximum = 0.0749444 (at node 63)
Accepted packet rate average = 0.0177318
	minimum = 0.00888889 (at node 17)
	maximum = 0.0746667 (at node 63)
Injected flit rate average = 0.0515799
	minimum = 0.0103333 (at node 17)
	maximum = 0.347333 (at node 63)
Accepted flit rate average= 0.0515677
	minimum = 0.0408333 (at node 51)
	maximum = 0.0886667 (at node 63)
Injected packet length average = 2.90776
Accepted packet length average = 2.90821
Total in-flight flits = 168 (168 measured)
latency change    = 0.000305196
throughput change = 0.00188335
Class 0:
Packet latency average = 71.4519
	minimum = 12
	maximum = 401
Network latency average = 47.134
	minimum = 12
	maximum = 178
Slowest packet = 11110
Flit latency average = 46.592
	minimum = 11
	maximum = 173
Slowest flit = 53942
Fragmentation average = 0.682007
	minimum = 0
	maximum = 6
Injected packet rate average = 0.0177023
	minimum = 0.00889474 (at node 39)
	maximum = 0.0739474 (at node 63)
Accepted packet rate average = 0.01769
	minimum = 0.009 (at node 39)
	maximum = 0.0735263 (at node 63)
Injected flit rate average = 0.051477
	minimum = 0.0102632 (at node 28)
	maximum = 0.343211 (at node 63)
Accepted flit rate average= 0.0514646
	minimum = 0.0412632 (at node 1)
	maximum = 0.0868947 (at node 63)
Injected packet length average = 2.90793
Accepted packet length average = 2.90926
Total in-flight flits = 170 (170 measured)
latency change    = 0.00649469
throughput change = 0.00200274
Class 0:
Packet latency average = 71.0207
	minimum = 12
	maximum = 401
Network latency average = 47.0173
	minimum = 12
	maximum = 178
Slowest packet = 11110
Flit latency average = 46.4339
	minimum = 11
	maximum = 173
Slowest flit = 53942
Fragmentation average = 0.679972
	minimum = 0
	maximum = 6
Injected packet rate average = 0.017643
	minimum = 0.00885 (at node 39)
	maximum = 0.07325 (at node 63)
Accepted packet rate average = 0.0176289
	minimum = 0.0088 (at node 39)
	maximum = 0.07315 (at node 63)
Injected flit rate average = 0.0513016
	minimum = 0.0102 (at node 28)
	maximum = 0.3403 (at node 63)
Accepted flit rate average= 0.0512813
	minimum = 0.0408 (at node 39)
	maximum = 0.08635 (at node 63)
Injected packet length average = 2.90776
Accepted packet length average = 2.90893
Total in-flight flits = 186 (186 measured)
latency change    = 0.00607106
throughput change = 0.00357612
Class 0:
Packet latency average = 70.7792
	minimum = 12
	maximum = 401
Network latency average = 46.897
	minimum = 12
	maximum = 178
Slowest packet = 11110
Flit latency average = 46.2697
	minimum = 11
	maximum = 173
Slowest flit = 53942
Fragmentation average = 0.6786
	minimum = 0
	maximum = 6
Injected packet rate average = 0.0176696
	minimum = 0.00890476 (at node 17)
	maximum = 0.0734762 (at node 63)
Accepted packet rate average = 0.0176555
	minimum = 0.00895238 (at node 17)
	maximum = 0.0733333 (at node 63)
Injected flit rate average = 0.0513802
	minimum = 0.0103333 (at node 17)
	maximum = 0.341429 (at node 63)
Accepted flit rate average= 0.0513676
	minimum = 0.0417619 (at node 39)
	maximum = 0.0865714 (at node 63)
Injected packet length average = 2.90782
Accepted packet length average = 2.90944
Total in-flight flits = 173 (173 measured)
latency change    = 0.00341182
throughput change = 0.00168023
Class 0:
Packet latency average = 70.7163
	minimum = 12
	maximum = 401
Network latency average = 46.8972
	minimum = 12
	maximum = 178
Slowest packet = 11110
Flit latency average = 46.2659
	minimum = 11
	maximum = 173
Slowest flit = 53942
Fragmentation average = 0.677617
	minimum = 0
	maximum = 6
Injected packet rate average = 0.0176776
	minimum = 0.00890909 (at node 39)
	maximum = 0.0731818 (at node 63)
Accepted packet rate average = 0.0176719
	minimum = 0.00895455 (at node 39)
	maximum = 0.0732727 (at node 63)
Injected flit rate average = 0.0513999
	minimum = 0.0104545 (at node 28)
	maximum = 0.339318 (at node 63)
Accepted flit rate average= 0.0513942
	minimum = 0.0413182 (at node 39)
	maximum = 0.0868182 (at node 63)
Injected packet length average = 2.90763
Accepted packet length average = 2.90825
Total in-flight flits = 168 (168 measured)
latency change    = 0.000888892
throughput change = 0.000517892
Class 0:
Packet latency average = 70.6609
	minimum = 12
	maximum = 401
Network latency average = 46.8898
	minimum = 12
	maximum = 178
Slowest packet = 11110
Flit latency average = 46.23
	minimum = 11
	maximum = 173
Slowest flit = 53942
Fragmentation average = 0.67598
	minimum = 0
	maximum = 6
Injected packet rate average = 0.017642
	minimum = 0.00904348 (at node 17)
	maximum = 0.0734783 (at node 63)
Accepted packet rate average = 0.0176318
	minimum = 0.00904348 (at node 39)
	maximum = 0.0733913 (at node 63)
Injected flit rate average = 0.051305
	minimum = 0.0106087 (at node 17)
	maximum = 0.340783 (at node 63)
Accepted flit rate average= 0.0512942
	minimum = 0.0416087 (at node 1)
	maximum = 0.0868696 (at node 63)
Injected packet length average = 2.90812
Accepted packet length average = 2.90919
Total in-flight flits = 177 (177 measured)
latency change    = 0.000785336
throughput change = 0.0019499
Class 0:
Packet latency average = 70.4088
	minimum = 12
	maximum = 401
Network latency average = 46.8472
	minimum = 12
	maximum = 178
Slowest packet = 11110
Flit latency average = 46.1617
	minimum = 11
	maximum = 173
Slowest flit = 53942
Fragmentation average = 0.673554
	minimum = 0
	maximum = 6
Injected packet rate average = 0.0176146
	minimum = 0.00895833 (at node 39)
	maximum = 0.0732083 (at node 63)
Accepted packet rate average = 0.0176094
	minimum = 0.00895833 (at node 17)
	maximum = 0.0733333 (at node 63)
Injected flit rate average = 0.0511934
	minimum = 0.0105417 (at node 28)
	maximum = 0.339042 (at node 63)
Accepted flit rate average= 0.0512031
	minimum = 0.041375 (at node 54)
	maximum = 0.08725 (at node 63)
Injected packet length average = 2.90631
Accepted packet length average = 2.90772
Total in-flight flits = 139 (139 measured)
latency change    = 0.00358039
throughput change = 0.00177787
Class 0:
Packet latency average = 70.322
	minimum = 12
	maximum = 401
Network latency average = 46.8209
	minimum = 12
	maximum = 178
Slowest packet = 11110
Flit latency average = 46.1546
	minimum = 11
	maximum = 173
Slowest flit = 53942
Fragmentation average = 0.673265
	minimum = 0
	maximum = 6
Injected packet rate average = 0.0176956
	minimum = 0.00916 (at node 28)
	maximum = 0.07376 (at node 63)
Accepted packet rate average = 0.0176763
	minimum = 0.00912 (at node 17)
	maximum = 0.07348 (at node 63)
Injected flit rate average = 0.0513794
	minimum = 0.0106 (at node 28)
	maximum = 0.3406 (at node 63)
Accepted flit rate average= 0.05136
	minimum = 0.04212 (at node 54)
	maximum = 0.08784 (at node 60)
Injected packet length average = 2.90351
Accepted packet length average = 2.90559
Total in-flight flits = 186 (186 measured)
latency change    = 0.0012334
throughput change = 0.00305442
Class 0:
Packet latency average = 70.4822
	minimum = 12
	maximum = 401
Network latency average = 46.8509
	minimum = 12
	maximum = 178
Slowest packet = 11110
Flit latency average = 46.1721
	minimum = 11
	maximum = 173
Slowest flit = 53942
Fragmentation average = 0.673983
	minimum = 0
	maximum = 6
Injected packet rate average = 0.0176881
	minimum = 0.00903846 (at node 17)
	maximum = 0.0737692 (at node 63)
Accepted packet rate average = 0.0176845
	minimum = 0.00907692 (at node 17)
	maximum = 0.0734231 (at node 63)
Injected flit rate average = 0.0514285
	minimum = 0.0105769 (at node 17)
	maximum = 0.340231 (at node 63)
Accepted flit rate average= 0.0514255
	minimum = 0.0417308 (at node 54)
	maximum = 0.0878846 (at node 63)
Injected packet length average = 2.90752
Accepted packet length average = 2.90794
Total in-flight flits = 166 (166 measured)
latency change    = 0.00227234
throughput change = 0.00127331
Class 0:
Packet latency average = 70.4967
	minimum = 12
	maximum = 401
Network latency average = 46.8599
	minimum = 12
	maximum = 178
Slowest packet = 11110
Flit latency average = 46.1915
	minimum = 11
	maximum = 173
Slowest flit = 53942
Fragmentation average = 0.673551
	minimum = 0
	maximum = 6
Injected packet rate average = 0.0176534
	minimum = 0.00885185 (at node 17)
	maximum = 0.0732222 (at node 63)
Accepted packet rate average = 0.0176487
	minimum = 0.00892593 (at node 17)
	maximum = 0.0730741 (at node 63)
Injected flit rate average = 0.0513206
	minimum = 0.0103333 (at node 17)
	maximum = 0.337778 (at node 63)
Accepted flit rate average= 0.0513293
	minimum = 0.0416667 (at node 17)
	maximum = 0.0873704 (at node 63)
Injected packet length average = 2.90713
Accepted packet length average = 2.90838
Total in-flight flits = 145 (145 measured)
latency change    = 0.000206366
throughput change = 0.00187414
Class 0:
Packet latency average = 70.3597
	minimum = 12
	maximum = 401
Network latency average = 46.837
	minimum = 12
	maximum = 178
Slowest packet = 11110
Flit latency average = 46.1664
	minimum = 11
	maximum = 173
Slowest flit = 53942
Fragmentation average = 0.672751
	minimum = 0
	maximum = 6
Injected packet rate average = 0.0176339
	minimum = 0.00878571 (at node 17)
	maximum = 0.073 (at node 63)
Accepted packet rate average = 0.0176317
	minimum = 0.00882143 (at node 17)
	maximum = 0.0728571 (at node 63)
Injected flit rate average = 0.051245
	minimum = 0.0102857 (at node 17)
	maximum = 0.336857 (at node 63)
Accepted flit rate average= 0.0512595
	minimum = 0.0411071 (at node 17)
	maximum = 0.0870714 (at node 63)
Injected packet length average = 2.90604
Accepted packet length average = 2.90724
Total in-flight flits = 136 (136 measured)
latency change    = 0.00194759
throughput change = 0.00136162
Class 0:
Packet latency average = 70.4353
	minimum = 12
	maximum = 401
Network latency average = 46.889
	minimum = 12
	maximum = 178
Slowest packet = 11110
Flit latency average = 46.2284
	minimum = 11
	maximum = 173
Slowest flit = 53942
Fragmentation average = 0.67175
	minimum = 0
	maximum = 6
Injected packet rate average = 0.0176633
	minimum = 0.009 (at node 17)
	maximum = 0.0732414 (at node 63)
Accepted packet rate average = 0.0176514
	minimum = 0.00886207 (at node 17)
	maximum = 0.0731724 (at node 63)
Injected flit rate average = 0.0513195
	minimum = 0.0104483 (at node 17)
	maximum = 0.338034 (at node 63)
Accepted flit rate average= 0.0512936
	minimum = 0.0414138 (at node 17)
	maximum = 0.0874483 (at node 63)
Injected packet length average = 2.90544
Accepted packet length average = 2.90592
Total in-flight flits = 207 (207 measured)
latency change    = 0.00107306
throughput change = 0.000665884
Class 0:
Packet latency average = 70.3792
	minimum = 12
	maximum = 401
Network latency average = 46.8911
	minimum = 12
	maximum = 178
Slowest packet = 11110
Flit latency average = 46.2282
	minimum = 11
	maximum = 173
Slowest flit = 53942
Fragmentation average = 0.67164
	minimum = 0
	maximum = 6
Injected packet rate average = 0.0176974
	minimum = 0.00896667 (at node 17)
	maximum = 0.0730667 (at node 63)
Accepted packet rate average = 0.017687
	minimum = 0.009 (at node 17)
	maximum = 0.0731 (at node 63)
Injected flit rate average = 0.0513906
	minimum = 0.0105 (at node 17)
	maximum = 0.336933 (at node 63)
Accepted flit rate average= 0.0513813
	minimum = 0.0419333 (at node 17)
	maximum = 0.0874333 (at node 63)
Injected packet length average = 2.90385
Accepted packet length average = 2.90503
Total in-flight flits = 180 (180 measured)
latency change    = 0.000797414
throughput change = 0.00170505
Class 0:
Packet latency average = 70.7166
	minimum = 12
	maximum = 401
Network latency average = 46.9524
	minimum = 12
	maximum = 178
Slowest packet = 11110
Flit latency average = 46.3247
	minimum = 11
	maximum = 173
Slowest flit = 53942
Fragmentation average = 0.673905
	minimum = 0
	maximum = 6
Injected packet rate average = 0.0177203
	minimum = 0.00903226 (at node 17)
	maximum = 0.0732581 (at node 63)
Accepted packet rate average = 0.0177082
	minimum = 0.00896774 (at node 17)
	maximum = 0.073129 (at node 63)
Injected flit rate average = 0.0514965
	minimum = 0.0105161 (at node 17)
	maximum = 0.337903 (at node 63)
Accepted flit rate average= 0.0514738
	minimum = 0.0419355 (at node 17)
	maximum = 0.0875161 (at node 63)
Injected packet length average = 2.90608
Accepted packet length average = 2.90678
Total in-flight flits = 206 (206 measured)
latency change    = 0.00477163
throughput change = 0.00179781
Class 0:
Packet latency average = 70.9511
	minimum = 12
	maximum = 401
Network latency average = 47.0562
	minimum = 12
	maximum = 178
Slowest packet = 11110
Flit latency average = 46.4527
	minimum = 11
	maximum = 173
Slowest flit = 53942
Fragmentation average = 0.673785
	minimum = 0
	maximum = 6
Injected packet rate average = 0.0177476
	minimum = 0.00909375 (at node 17)
	maximum = 0.0732813 (at node 60)
Accepted packet rate average = 0.0177412
	minimum = 0.009125 (at node 17)
	maximum = 0.0733125 (at node 60)
Injected flit rate average = 0.0515596
	minimum = 0.0105938 (at node 17)
	maximum = 0.338938 (at node 60)
Accepted flit rate average= 0.0515488
	minimum = 0.042625 (at node 17)
	maximum = 0.08725 (at node 63)
Injected packet length average = 2.90516
Accepted packet length average = 2.9056
Total in-flight flits = 184 (184 measured)
latency change    = 0.00330544
throughput change = 0.00145566
Class 0:
Packet latency average = 71.0559
	minimum = 12
	maximum = 401
Network latency average = 47.0606
	minimum = 12
	maximum = 178
Slowest packet = 11110
Flit latency average = 46.4491
	minimum = 11
	maximum = 173
Slowest flit = 53942
Fragmentation average = 0.673749
	minimum = 0
	maximum = 6
Injected packet rate average = 0.0177472
	minimum = 0.00915152 (at node 17)
	maximum = 0.0730606 (at node 60)
Accepted packet rate average = 0.0177372
	minimum = 0.00912121 (at node 17)
	maximum = 0.0729394 (at node 60)
Injected flit rate average = 0.051571
	minimum = 0.0106061 (at node 17)
	maximum = 0.337697 (at node 60)
Accepted flit rate average= 0.0515677
	minimum = 0.042697 (at node 17)
	maximum = 0.0867576 (at node 60)
Injected packet length average = 2.90587
Accepted packet length average = 2.90732
Total in-flight flits = 164 (164 measured)
latency change    = 0.00147511
throughput change = 0.000366125
Class 0:
Packet latency average = 70.8959
	minimum = 12
	maximum = 401
Network latency average = 47.0004
	minimum = 12
	maximum = 178
Slowest packet = 11110
Flit latency average = 46.3772
	minimum = 11
	maximum = 173
Slowest flit = 53942
Fragmentation average = 0.673849
	minimum = 0
	maximum = 6
Injected packet rate average = 0.0177431
	minimum = 0.00917647 (at node 17)
	maximum = 0.0727353 (at node 63)
Accepted packet rate average = 0.0177422
	minimum = 0.00911765 (at node 17)
	maximum = 0.0726765 (at node 60)
Injected flit rate average = 0.0515694
	minimum = 0.0105882 (at node 17)
	maximum = 0.335765 (at node 63)
Accepted flit rate average= 0.0515832
	minimum = 0.0426471 (at node 16)
	maximum = 0.0867353 (at node 60)
Injected packet length average = 2.90645
Accepted packet length average = 2.90737
Total in-flight flits = 127 (127 measured)
latency change    = 0.00225782
throughput change = 0.000299939
Class 0:
Packet latency average = 70.7014
	minimum = 12
	maximum = 401
Network latency average = 46.944
	minimum = 12
	maximum = 178
Slowest packet = 11110
Flit latency average = 46.3013
	minimum = 11
	maximum = 173
Slowest flit = 53942
Fragmentation average = 0.673726
	minimum = 0
	maximum = 6
Injected packet rate average = 0.0177353
	minimum = 0.00914286 (at node 17)
	maximum = 0.0728571 (at node 63)
Accepted packet rate average = 0.0177268
	minimum = 0.00917143 (at node 17)
	maximum = 0.0726571 (at node 63)
Injected flit rate average = 0.0515281
	minimum = 0.0105143 (at node 17)
	maximum = 0.3364 (at node 63)
Accepted flit rate average= 0.051525
	minimum = 0.0423143 (at node 54)
	maximum = 0.0866571 (at node 63)
Injected packet length average = 2.9054
Accepted packet length average = 2.90662
Total in-flight flits = 166 (166 measured)
latency change    = 0.0027504
throughput change = 0.00112916
Class 0:
Packet latency average = 70.4489
	minimum = 12
	maximum = 401
Network latency average = 46.8643
	minimum = 12
	maximum = 178
Slowest packet = 11110
Flit latency average = 46.2006
	minimum = 11
	maximum = 173
Slowest flit = 53942
Fragmentation average = 0.672329
	minimum = 0
	maximum = 6
Injected packet rate average = 0.0176997
	minimum = 0.00905556 (at node 17)
	maximum = 0.0726389 (at node 63)
Accepted packet rate average = 0.0177001
	minimum = 0.00905556 (at node 17)
	maximum = 0.0724167 (at node 60)
Injected flit rate average = 0.0514336
	minimum = 0.0104444 (at node 17)
	maximum = 0.335528 (at node 63)
Accepted flit rate average= 0.0514466
	minimum = 0.0420278 (at node 54)
	maximum = 0.0863889 (at node 63)
Injected packet length average = 2.90591
Accepted packet length average = 2.90657
Total in-flight flits = 126 (126 measured)
latency change    = 0.00358486
throughput change = 0.00152363
Class 0:
Packet latency average = 70.2875
	minimum = 12
	maximum = 401
Network latency average = 46.8171
	minimum = 12
	maximum = 178
Slowest packet = 11110
Flit latency average = 46.1228
	minimum = 11
	maximum = 173
Slowest flit = 53942
Fragmentation average = 0.671682
	minimum = 0
	maximum = 6
Injected packet rate average = 0.0176757
	minimum = 0.009 (at node 17)
	maximum = 0.0724595 (at node 63)
Accepted packet rate average = 0.0176715
	minimum = 0.00894595 (at node 17)
	maximum = 0.0723784 (at node 63)
Injected flit rate average = 0.0513585
	minimum = 0.0103514 (at node 17)
	maximum = 0.334297 (at node 63)
Accepted flit rate average= 0.0513568
	minimum = 0.042027 (at node 17)
	maximum = 0.0864865 (at node 63)
Injected packet length average = 2.9056
Accepted packet length average = 2.9062
Total in-flight flits = 162 (162 measured)
latency change    = 0.0022959
throughput change = 0.00174803
Class 0:
Packet latency average = 70.1355
	minimum = 12
	maximum = 401
Network latency average = 46.7913
	minimum = 12
	maximum = 178
Slowest packet = 11110
Flit latency average = 46.0921
	minimum = 11
	maximum = 173
Slowest flit = 53942
Fragmentation average = 0.671684
	minimum = 0
	maximum = 6
Injected packet rate average = 0.0176694
	minimum = 0.00913158 (at node 17)
	maximum = 0.0721842 (at node 63)
Accepted packet rate average = 0.0176637
	minimum = 0.00905263 (at node 17)
	maximum = 0.0721842 (at node 63)
Injected flit rate average = 0.0513224
	minimum = 0.0106053 (at node 17)
	maximum = 0.333 (at node 63)
Accepted flit rate average= 0.0513199
	minimum = 0.0424211 (at node 17)
	maximum = 0.0862895 (at node 63)
Injected packet length average = 2.90459
Accepted packet length average = 2.9054
Total in-flight flits = 169 (169 measured)
latency change    = 0.00216639
throughput change = 0.000719797
Class 0:
Packet latency average = 70.0621
	minimum = 12
	maximum = 401
Network latency average = 46.7723
	minimum = 12
	maximum = 178
Slowest packet = 11110
Flit latency average = 46.0729
	minimum = 11
	maximum = 173
Slowest flit = 53942
Fragmentation average = 0.671718
	minimum = 0
	maximum = 6
Injected packet rate average = 0.0176795
	minimum = 0.00923077 (at node 16)
	maximum = 0.0721795 (at node 63)
Accepted packet rate average = 0.0176787
	minimum = 0.00917949 (at node 23)
	maximum = 0.0722051 (at node 60)
Injected flit rate average = 0.0513438
	minimum = 0.0106667 (at node 23)
	maximum = 0.332923 (at node 60)
Accepted flit rate average= 0.0513518
	minimum = 0.0423333 (at node 42)
	maximum = 0.0863846 (at node 63)
Injected packet length average = 2.90414
Accepted packet length average = 2.90473
Total in-flight flits = 133 (133 measured)
latency change    = 0.00104782
throughput change = 0.000620456
Class 0:
Packet latency average = 70.1031
	minimum = 12
	maximum = 401
Network latency average = 46.7959
	minimum = 12
	maximum = 178
Slowest packet = 11110
Flit latency average = 46.0964
	minimum = 11
	maximum = 173
Slowest flit = 53942
Fragmentation average = 0.672061
	minimum = 0
	maximum = 6
Injected packet rate average = 0.0176648
	minimum = 0.009175 (at node 16)
	maximum = 0.071975 (at node 60)
Accepted packet rate average = 0.0176609
	minimum = 0.00915 (at node 23)
	maximum = 0.07185 (at node 60)
Injected flit rate average = 0.0512984
	minimum = 0.01065 (at node 23)
	maximum = 0.3321 (at node 60)
Accepted flit rate average= 0.051298
	minimum = 0.0424 (at node 16)
	maximum = 0.0862 (at node 63)
Injected packet length average = 2.90398
Accepted packet length average = 2.9046
Total in-flight flits = 160 (160 measured)
latency change    = 0.000584397
throughput change = 0.00104713
Class 0:
Packet latency average = 70.0176
	minimum = 12
	maximum = 401
Network latency average = 46.766
	minimum = 12
	maximum = 178
Slowest packet = 11110
Flit latency average = 46.0607
	minimum = 11
	maximum = 173
Slowest flit = 53942
Fragmentation average = 0.671526
	minimum = 0
	maximum = 6
Injected packet rate average = 0.0176643
	minimum = 0.00917073 (at node 16)
	maximum = 0.0719756 (at node 60)
Accepted packet rate average = 0.0176616
	minimum = 0.00907317 (at node 23)
	maximum = 0.072 (at node 60)
Injected flit rate average = 0.0512912
	minimum = 0.0105854 (at node 23)
	maximum = 0.332098 (at node 60)
Accepted flit rate average= 0.0512988
	minimum = 0.0420976 (at node 16)
	maximum = 0.0860732 (at node 63)
Injected packet length average = 2.90367
Accepted packet length average = 2.90454
Total in-flight flits = 140 (140 measured)
latency change    = 0.0012217
throughput change = 1.43008e-05
Class 0:
Packet latency average = 69.9611
	minimum = 12
	maximum = 401
Network latency average = 46.785
	minimum = 12
	maximum = 178
Slowest packet = 11110
Flit latency average = 46.08
	minimum = 11
	maximum = 173
Slowest flit = 53942
Fragmentation average = 0.671368
	minimum = 0
	maximum = 6
Injected packet rate average = 0.0176429
	minimum = 0.00921429 (at node 23)
	maximum = 0.0720714 (at node 60)
Accepted packet rate average = 0.0176347
	minimum = 0.00916667 (at node 23)
	maximum = 0.0719762 (at node 60)
Injected flit rate average = 0.0512548
	minimum = 0.0106429 (at node 23)
	maximum = 0.332786 (at node 60)
Accepted flit rate average= 0.0512377
	minimum = 0.0424524 (at node 54)
	maximum = 0.0857857 (at node 60)
Injected packet length average = 2.90513
Accepted packet length average = 2.90551
Total in-flight flits = 210 (210 measured)
latency change    = 0.000807513
throughput change = 0.00119165
Class 0:
Packet latency average = 69.8482
	minimum = 12
	maximum = 401
Network latency average = 46.7823
	minimum = 12
	maximum = 178
Slowest packet = 11110
Flit latency average = 46.0731
	minimum = 11
	maximum = 173
Slowest flit = 53942
Fragmentation average = 0.671418
	minimum = 0
	maximum = 6
Injected packet rate average = 0.0176076
	minimum = 0.00927907 (at node 16)
	maximum = 0.0714651 (at node 60)
Accepted packet rate average = 0.0176043
	minimum = 0.00918605 (at node 23)
	maximum = 0.0714651 (at node 60)
Injected flit rate average = 0.0511344
	minimum = 0.0107209 (at node 23)
	maximum = 0.329791 (at node 60)
Accepted flit rate average= 0.0511403
	minimum = 0.0423023 (at node 54)
	maximum = 0.0855116 (at node 58)
Injected packet length average = 2.90412
Accepted packet length average = 2.90499
Total in-flight flits = 147 (147 measured)
latency change    = 0.00161618
throughput change = 0.00190577
Class 0:
Packet latency average = 70.0559
	minimum = 12
	maximum = 401
Network latency average = 46.8255
	minimum = 12
	maximum = 178
Slowest packet = 11110
Flit latency average = 46.1225
	minimum = 11
	maximum = 173
Slowest flit = 53942
Fragmentation average = 0.671228
	minimum = 0
	maximum = 6
Injected packet rate average = 0.017614
	minimum = 0.00927273 (at node 16)
	maximum = 0.0718409 (at node 60)
Accepted packet rate average = 0.0176101
	minimum = 0.00925 (at node 16)
	maximum = 0.0717045 (at node 60)
Injected flit rate average = 0.0511563
	minimum = 0.0107045 (at node 23)
	maximum = 0.331205 (at node 60)
Accepted flit rate average= 0.0511637
	minimum = 0.0425227 (at node 54)
	maximum = 0.086 (at node 63)
Injected packet length average = 2.9043
Accepted packet length average = 2.90536
Total in-flight flits = 137 (137 measured)
latency change    = 0.00296547
throughput change = 0.00045825
Class 0:
Packet latency average = 70.0145
	minimum = 12
	maximum = 401
Network latency average = 46.8008
	minimum = 12
	maximum = 178
Slowest packet = 11110
Flit latency average = 46.095
	minimum = 11
	maximum = 173
Slowest flit = 53942
Fragmentation average = 0.670624
	minimum = 0
	maximum = 6
Injected packet rate average = 0.0175997
	minimum = 0.00924444 (at node 54)
	maximum = 0.0717333 (at node 60)
Accepted packet rate average = 0.017592
	minimum = 0.00924444 (at node 23)
	maximum = 0.0716667 (at node 60)
Injected flit rate average = 0.051117
	minimum = 0.0108 (at node 23)
	maximum = 0.330844 (at node 60)
Accepted flit rate average= 0.0511066
	minimum = 0.0419556 (at node 54)
	maximum = 0.0859333 (at node 63)
Injected packet length average = 2.90443
Accepted packet length average = 2.9051
Total in-flight flits = 191 (191 measured)
latency change    = 0.000591681
throughput change = 0.00111747
Class 0:
Packet latency average = 69.9398
	minimum = 12
	maximum = 401
Network latency average = 46.7841
	minimum = 12
	maximum = 178
Slowest packet = 11110
Flit latency average = 46.0717
	minimum = 11
	maximum = 173
Slowest flit = 53942
Fragmentation average = 0.670132
	minimum = 0
	maximum = 6
Injected packet rate average = 0.0175941
	minimum = 0.00926087 (at node 16)
	maximum = 0.0716522 (at node 63)
Accepted packet rate average = 0.0175917
	minimum = 0.00930435 (at node 16)
	maximum = 0.0714565 (at node 63)
Injected flit rate average = 0.0511022
	minimum = 0.0109565 (at node 23)
	maximum = 0.32913 (at node 63)
Accepted flit rate average= 0.0511039
	minimum = 0.0422391 (at node 54)
	maximum = 0.0860652 (at node 63)
Injected packet length average = 2.90451
Accepted packet length average = 2.905
Total in-flight flits = 156 (156 measured)
latency change    = 0.00106744
throughput change = 5.19922e-05
Class 0:
Packet latency average = 69.8377
	minimum = 12
	maximum = 401
Network latency average = 46.7525
	minimum = 12
	maximum = 178
Slowest packet = 11110
Flit latency average = 46.0265
	minimum = 11
	maximum = 173
Slowest flit = 53942
Fragmentation average = 0.669445
	minimum = 0
	maximum = 6
Injected packet rate average = 0.0175645
	minimum = 0.0092766 (at node 54)
	maximum = 0.0712128 (at node 60)
Accepted packet rate average = 0.0175608
	minimum = 0.00925532 (at node 16)
	maximum = 0.0711489 (at node 60)
Injected flit rate average = 0.0510136
	minimum = 0.0109362 (at node 17)
	maximum = 0.32866 (at node 60)
Accepted flit rate average= 0.0510176
	minimum = 0.0420851 (at node 54)
	maximum = 0.0857021 (at node 63)
Injected packet length average = 2.90436
Accepted packet length average = 2.90519
Total in-flight flits = 148 (148 measured)
latency change    = 0.00146302
throughput change = 0.00169197
Class 0:
Packet latency average = 69.7274
	minimum = 12
	maximum = 401
Network latency average = 46.7312
	minimum = 12
	maximum = 178
Slowest packet = 11110
Flit latency average = 46.0027
	minimum = 11
	maximum = 173
Slowest flit = 53942
Fragmentation average = 0.669024
	minimum = 0
	maximum = 6
Injected packet rate average = 0.0175553
	minimum = 0.00922917 (at node 54)
	maximum = 0.0711042 (at node 60)
Accepted packet rate average = 0.0175527
	minimum = 0.00927083 (at node 54)
	maximum = 0.0711042 (at node 60)
Injected flit rate average = 0.0509727
	minimum = 0.0110833 (at node 17)
	maximum = 0.327729 (at node 60)
Accepted flit rate average= 0.0509749
	minimum = 0.0418542 (at node 54)
	maximum = 0.085625 (at node 63)
Injected packet length average = 2.90354
Accepted packet length average = 2.9041
Total in-flight flits = 156 (156 measured)
latency change    = 0.00158098
throughput change = 0.000837368
Class 0:
Packet latency average = 69.6645
	minimum = 12
	maximum = 401
Network latency average = 46.7113
	minimum = 12
	maximum = 178
Slowest packet = 11110
Flit latency average = 45.9701
	minimum = 11
	maximum = 173
Slowest flit = 53942
Fragmentation average = 0.669597
	minimum = 0
	maximum = 6
Injected packet rate average = 0.0175277
	minimum = 0.00922449 (at node 54)
	maximum = 0.0711429 (at node 63)
Accepted packet rate average = 0.0175313
	minimum = 0.00930612 (at node 54)
	maximum = 0.0711429 (at node 63)
Injected flit rate average = 0.050898
	minimum = 0.0110816 (at node 17)
	maximum = 0.326735 (at node 63)
Accepted flit rate average= 0.0509225
	minimum = 0.0421224 (at node 54)
	maximum = 0.0857143 (at node 63)
Injected packet length average = 2.90385
Accepted packet length average = 2.90467
Total in-flight flits = 79 (79 measured)
latency change    = 0.000903341
throughput change = 0.00102945
Class 0:
Packet latency average = 69.5567
	minimum = 12
	maximum = 401
Network latency average = 46.6916
	minimum = 12
	maximum = 178
Slowest packet = 11110
Flit latency average = 45.9424
	minimum = 11
	maximum = 173
Slowest flit = 53942
Fragmentation average = 0.669856
	minimum = 0
	maximum = 6
Injected packet rate average = 0.0175194
	minimum = 0.00928 (at node 54)
	maximum = 0.07118 (at node 60)
Accepted packet rate average = 0.0175178
	minimum = 0.00932 (at node 54)
	maximum = 0.07126 (at node 60)
Injected flit rate average = 0.0508769
	minimum = 0.01106 (at node 23)
	maximum = 0.32802 (at node 60)
Accepted flit rate average= 0.0508819
	minimum = 0.04216 (at node 54)
	maximum = 0.08534 (at node 63)
Injected packet length average = 2.90403
Accepted packet length average = 2.90458
Total in-flight flits = 141 (141 measured)
latency change    = 0.00154996
throughput change = 0.000798669
Class 0:
Packet latency average = 69.4335
	minimum = 12
	maximum = 401
Network latency average = 46.6496
	minimum = 12
	maximum = 178
Slowest packet = 11110
Flit latency average = 45.8892
	minimum = 11
	maximum = 173
Slowest flit = 53942
Fragmentation average = 0.669301
	minimum = 0
	maximum = 6
Injected packet rate average = 0.0175
	minimum = 0.00931373 (at node 19)
	maximum = 0.0712941 (at node 60)
Accepted packet rate average = 0.0174957
	minimum = 0.00927451 (at node 19)
	maximum = 0.0714118 (at node 60)
Injected flit rate average = 0.0508171
	minimum = 0.0111373 (at node 23)
	maximum = 0.328725 (at node 60)
Accepted flit rate average= 0.050818
	minimum = 0.0423922 (at node 54)
	maximum = 0.0852941 (at node 60)
Injected packet length average = 2.90383
Accepted packet length average = 2.9046
Total in-flight flits = 149 (149 measured)
latency change    = 0.00177479
throughput change = 0.00125665
Class 0:
Packet latency average = 69.3468
	minimum = 12
	maximum = 401
Network latency average = 46.6366
	minimum = 12
	maximum = 178
Slowest packet = 11110
Flit latency average = 45.8704
	minimum = 11
	maximum = 173
Slowest flit = 53942
Fragmentation average = 0.668843
	minimum = 0
	maximum = 6
Injected packet rate average = 0.0175012
	minimum = 0.00932692 (at node 19)
	maximum = 0.0714808 (at node 60)
Accepted packet rate average = 0.0175012
	minimum = 0.00930769 (at node 19)
	maximum = 0.0714808 (at node 60)
Injected flit rate average = 0.0508164
	minimum = 0.0111538 (at node 23)
	maximum = 0.329577 (at node 60)
Accepted flit rate average= 0.0508245
	minimum = 0.0425962 (at node 54)
	maximum = 0.0853269 (at node 60)
Injected packet length average = 2.9036
Accepted packet length average = 2.90406
Total in-flight flits = 133 (133 measured)
latency change    = 0.00124954
throughput change = 0.00012798
Class 0:
Packet latency average = 69.3134
	minimum = 12
	maximum = 401
Network latency average = 46.6297
	minimum = 12
	maximum = 178
Slowest packet = 11110
Flit latency average = 45.8675
	minimum = 11
	maximum = 173
Slowest flit = 53942
Fragmentation average = 0.668997
	minimum = 0
	maximum = 6
Injected packet rate average = 0.0175124
	minimum = 0.00933962 (at node 19)
	maximum = 0.071434 (at node 60)
Accepted packet rate average = 0.0175094
	minimum = 0.00933962 (at node 19)
	maximum = 0.0715094 (at node 60)
Injected flit rate average = 0.0508485
	minimum = 0.0111509 (at node 19)
	maximum = 0.329736 (at node 60)
Accepted flit rate average= 0.0508452
	minimum = 0.0428491 (at node 54)
	maximum = 0.0852453 (at node 60)
Injected packet length average = 2.90357
Accepted packet length average = 2.90388
Total in-flight flits = 172 (172 measured)
latency change    = 0.000482075
throughput change = 0.000407213
Class 0:
Packet latency average = 69.3912
	minimum = 12
	maximum = 401
Network latency average = 46.661
	minimum = 12
	maximum = 178
Slowest packet = 11110
Flit latency average = 45.9027
	minimum = 11
	maximum = 173
Slowest flit = 53942
Fragmentation average = 0.669432
	minimum = 0
	maximum = 6
Injected packet rate average = 0.0175229
	minimum = 0.00931481 (at node 19)
	maximum = 0.0715926 (at node 60)
Accepted packet rate average = 0.0175194
	minimum = 0.00935185 (at node 19)
	maximum = 0.0715556 (at node 60)
Injected flit rate average = 0.0508912
	minimum = 0.0110926 (at node 19)
	maximum = 0.330296 (at node 60)
Accepted flit rate average= 0.0508929
	minimum = 0.0426296 (at node 54)
	maximum = 0.0854444 (at node 60)
Injected packet length average = 2.90428
Accepted packet length average = 2.90495
Total in-flight flits = 150 (150 measured)
latency change    = 0.00112112
throughput change = 0.000937571
Class 0:
Packet latency average = 69.3855
	minimum = 12
	maximum = 401
Network latency average = 46.6693
	minimum = 12
	maximum = 178
Slowest packet = 11110
Flit latency average = 45.9223
	minimum = 11
	maximum = 173
Slowest flit = 53942
Fragmentation average = 0.668721
	minimum = 0
	maximum = 6
Injected packet rate average = 0.0175335
	minimum = 0.00934545 (at node 16)
	maximum = 0.0714727 (at node 60)
Accepted packet rate average = 0.0175293
	minimum = 0.00938182 (at node 16)
	maximum = 0.0715091 (at node 60)
Injected flit rate average = 0.0509037
	minimum = 0.0111455 (at node 19)
	maximum = 0.329455 (at node 60)
Accepted flit rate average= 0.0508929
	minimum = 0.0424909 (at node 54)
	maximum = 0.0854727 (at node 60)
Injected packet length average = 2.90322
Accepted packet length average = 2.90331
Total in-flight flits = 196 (196 measured)
latency change    = 8.23248e-05
throughput change = 8.26983e-07
Class 0:
Packet latency average = 69.4445
	minimum = 12
	maximum = 401
Network latency average = 46.7036
	minimum = 12
	maximum = 178
Slowest packet = 11110
Flit latency average = 45.96
	minimum = 11
	maximum = 173
Slowest flit = 53942
Fragmentation average = 0.669217
	minimum = 0
	maximum = 6
Injected packet rate average = 0.0175218
	minimum = 0.00930357 (at node 16)
	maximum = 0.0713571 (at node 60)
Accepted packet rate average = 0.0175187
	minimum = 0.00933929 (at node 16)
	maximum = 0.071375 (at node 60)
Injected flit rate average = 0.0508753
	minimum = 0.0110536 (at node 19)
	maximum = 0.329 (at node 60)
Accepted flit rate average= 0.0508803
	minimum = 0.042625 (at node 16)
	maximum = 0.0852321 (at node 60)
Injected packet length average = 2.90355
Accepted packet length average = 2.90434
Total in-flight flits = 138 (138 measured)
latency change    = 0.000849872
throughput change = 0.000247569
Class 0:
Packet latency average = 69.4334
	minimum = 12
	maximum = 401
Network latency average = 46.7026
	minimum = 12
	maximum = 178
Slowest packet = 11110
Flit latency average = 45.9652
	minimum = 11
	maximum = 173
Slowest flit = 53942
Fragmentation average = 0.669438
	minimum = 0
	maximum = 6
Injected packet rate average = 0.0175203
	minimum = 0.00922807 (at node 16)
	maximum = 0.0712456 (at node 60)
Accepted packet rate average = 0.0175189
	minimum = 0.00926316 (at node 16)
	maximum = 0.0712807 (at node 60)
Injected flit rate average = 0.050884
	minimum = 0.0111404 (at node 19)
	maximum = 0.328719 (at node 60)
Accepted flit rate average= 0.0508871
	minimum = 0.0423158 (at node 16)
	maximum = 0.0851754 (at node 63)
Injected packet length average = 2.90429
Accepted packet length average = 2.90469
Total in-flight flits = 145 (145 measured)
latency change    = 0.000160046
throughput change = 0.000132844
Class 0:
Packet latency average = 69.4226
	minimum = 12
	maximum = 401
Network latency average = 46.7133
	minimum = 12
	maximum = 178
Slowest packet = 11110
Flit latency average = 45.9791
	minimum = 11
	maximum = 173
Slowest flit = 53942
Fragmentation average = 0.668281
	minimum = 0
	maximum = 6
Injected packet rate average = 0.0175329
	minimum = 0.00927586 (at node 16)
	maximum = 0.0709828 (at node 63)
Accepted packet rate average = 0.0175321
	minimum = 0.0092931 (at node 16)
	maximum = 0.0709655 (at node 60)
Injected flit rate average = 0.0509003
	minimum = 0.0111897 (at node 49)
	maximum = 0.327397 (at node 60)
Accepted flit rate average= 0.0509068
	minimum = 0.0425345 (at node 16)
	maximum = 0.0854483 (at node 63)
Injected packet length average = 2.90314
Accepted packet length average = 2.90364
Total in-flight flits = 135 (135 measured)
latency change    = 0.000155051
throughput change = 0.00038752
Class 0:
Packet latency average = 69.4329
	minimum = 12
	maximum = 401
Network latency average = 46.696
	minimum = 12
	maximum = 178
Slowest packet = 11110
Flit latency average = 45.9417
	minimum = 11
	maximum = 173
Slowest flit = 53942
Fragmentation average = 0.668265
	minimum = 0
	maximum = 6
Injected packet rate average = 0.0175244
	minimum = 0.00928814 (at node 16)
	maximum = 0.0710678 (at node 63)
Accepted packet rate average = 0.0175238
	minimum = 0.00933898 (at node 16)
	maximum = 0.0709661 (at node 63)
Injected flit rate average = 0.0508919
	minimum = 0.0112034 (at node 49)
	maximum = 0.326407 (at node 57)
Accepted flit rate average= 0.0508949
	minimum = 0.0425254 (at node 54)
	maximum = 0.0855763 (at node 63)
Injected packet length average = 2.90407
Accepted packet length average = 2.90432
Total in-flight flits = 152 (152 measured)
latency change    = 0.000148519
throughput change = 0.000234336
Class 0:
Packet latency average = 69.3537
	minimum = 12
	maximum = 401
Network latency average = 46.6909
	minimum = 12
	maximum = 178
Slowest packet = 11110
Flit latency average = 45.9318
	minimum = 11
	maximum = 173
Slowest flit = 53942
Fragmentation average = 0.667802
	minimum = 0
	maximum = 6
Injected packet rate average = 0.0175224
	minimum = 0.0093 (at node 16)
	maximum = 0.0708833 (at node 63)
Accepted packet rate average = 0.0175198
	minimum = 0.00931667 (at node 16)
	maximum = 0.0708167 (at node 63)
Injected flit rate average = 0.0508753
	minimum = 0.0112 (at node 49)
	maximum = 0.326 (at node 61)
Accepted flit rate average= 0.0508716
	minimum = 0.0427167 (at node 16)
	maximum = 0.08545 (at node 63)
Injected packet length average = 2.90344
Accepted packet length average = 2.90367
Total in-flight flits = 176 (176 measured)
latency change    = 0.00114216
throughput change = 0.000456988
Class 0:
Packet latency average = 69.2899
	minimum = 12
	maximum = 401
Network latency average = 46.674
	minimum = 12
	maximum = 178
Slowest packet = 11110
Flit latency average = 45.9119
	minimum = 11
	maximum = 173
Slowest flit = 53942
Fragmentation average = 0.667223
	minimum = 0
	maximum = 6
Injected packet rate average = 0.017512
	minimum = 0.00927869 (at node 16)
	maximum = 0.0708033 (at node 63)
Accepted packet rate average = 0.0175082
	minimum = 0.00927869 (at node 16)
	maximum = 0.0706721 (at node 63)
Injected flit rate average = 0.0508399
	minimum = 0.0111311 (at node 46)
	maximum = 0.325721 (at node 57)
Accepted flit rate average= 0.0508435
	minimum = 0.042459 (at node 16)
	maximum = 0.0851639 (at node 63)
Injected packet length average = 2.90314
Accepted packet length average = 2.90398
Total in-flight flits = 143 (143 measured)
latency change    = 0.000920436
throughput change = 0.000553084
Class 0:
Packet latency average = 69.2304
	minimum = 12
	maximum = 401
Network latency average = 46.6655
	minimum = 12
	maximum = 178
Slowest packet = 11110
Flit latency average = 45.8948
	minimum = 11
	maximum = 173
Slowest flit = 53942
Fragmentation average = 0.667036
	minimum = 0
	maximum = 6
Injected packet rate average = 0.0175098
	minimum = 0.00935484 (at node 16)
	maximum = 0.0707097 (at node 60)
Accepted packet rate average = 0.0175106
	minimum = 0.00932258 (at node 16)
	maximum = 0.0706613 (at node 60)
Injected flit rate average = 0.0508425
	minimum = 0.0110968 (at node 49)
	maximum = 0.326565 (at node 57)
Accepted flit rate average= 0.0508511
	minimum = 0.0426129 (at node 16)
	maximum = 0.0849516 (at node 63)
Injected packet length average = 2.90365
Accepted packet length average = 2.90402
Total in-flight flits = 123 (123 measured)
latency change    = 0.000860272
throughput change = 0.00014876
Class 0:
Packet latency average = 69.1381
	minimum = 12
	maximum = 401
Network latency average = 46.6388
	minimum = 12
	maximum = 178
Slowest packet = 11110
Flit latency average = 45.8626
	minimum = 11
	maximum = 173
Slowest flit = 53942
Fragmentation average = 0.666487
	minimum = 0
	maximum = 6
Injected packet rate average = 0.0175079
	minimum = 0.00942857 (at node 19)
	maximum = 0.0706508 (at node 63)
Accepted packet rate average = 0.017504
	minimum = 0.00942857 (at node 19)
	maximum = 0.0706825 (at node 57)
Injected flit rate average = 0.0508343
	minimum = 0.011127 (at node 46)
	maximum = 0.327016 (at node 57)
Accepted flit rate average= 0.0508321
	minimum = 0.0431587 (at node 54)
	maximum = 0.0848571 (at node 63)
Injected packet length average = 2.9035
Accepted packet length average = 2.90403
Total in-flight flits = 172 (172 measured)
latency change    = 0.00133537
throughput change = 0.000373095
Class 0:
Packet latency average = 69.0839
	minimum = 12
	maximum = 401
Network latency average = 46.634
	minimum = 12
	maximum = 178
Slowest packet = 11110
Flit latency average = 45.8505
	minimum = 11
	maximum = 173
Slowest flit = 53942
Fragmentation average = 0.666215
	minimum = 0
	maximum = 6
Injected packet rate average = 0.0174968
	minimum = 0.00942187 (at node 19)
	maximum = 0.070625 (at node 57)
Accepted packet rate average = 0.0174944
	minimum = 0.00945312 (at node 19)
	maximum = 0.0707031 (at node 57)
Injected flit rate average = 0.0507986
	minimum = 0.0110781 (at node 49)
	maximum = 0.326813 (at node 57)
Accepted flit rate average= 0.0507988
	minimum = 0.043 (at node 54)
	maximum = 0.0846875 (at node 63)
Injected packet length average = 2.9033
Accepted packet length average = 2.90372
Total in-flight flits = 154 (154 measured)
latency change    = 0.000783282
throughput change = 0.00065484
Class 0:
Packet latency average = 69.0993
	minimum = 12
	maximum = 401
Network latency average = 46.627
	minimum = 12
	maximum = 178
Slowest packet = 11110
Flit latency average = 45.8455
	minimum = 11
	maximum = 173
Slowest flit = 53942
Fragmentation average = 0.666566
	minimum = 0
	maximum = 6
Injected packet rate average = 0.017499
	minimum = 0.00938462 (at node 49)
	maximum = 0.0707077 (at node 60)
Accepted packet rate average = 0.0174964
	minimum = 0.0094 (at node 49)
	maximum = 0.0706615 (at node 57)
Injected flit rate average = 0.0508046
	minimum = 0.0109846 (at node 49)
	maximum = 0.326938 (at node 57)
Accepted flit rate average= 0.0508062
	minimum = 0.0433692 (at node 16)
	maximum = 0.0848308 (at node 58)
Injected packet length average = 2.90328
Accepted packet length average = 2.90381
Total in-flight flits = 147 (147 measured)
latency change    = 0.000222482
throughput change = 0.000146082
Class 0:
Packet latency average = 69.0604
	minimum = 12
	maximum = 401
Network latency average = 46.6114
	minimum = 12
	maximum = 178
Slowest packet = 11110
Flit latency average = 45.8246
	minimum = 11
	maximum = 173
Slowest flit = 53942
Fragmentation average = 0.666216
	minimum = 0
	maximum = 6
Injected packet rate average = 0.0175118
	minimum = 0.00939394 (at node 19)
	maximum = 0.0706364 (at node 57)
Accepted packet rate average = 0.017509
	minimum = 0.00937879 (at node 19)
	maximum = 0.0707273 (at node 57)
Injected flit rate average = 0.0508378
	minimum = 0.0110455 (at node 49)
	maximum = 0.326939 (at node 57)
Accepted flit rate average= 0.0508371
	minimum = 0.0433182 (at node 19)
	maximum = 0.0848182 (at node 58)
Injected packet length average = 2.90306
Accepted packet length average = 2.90349
Total in-flight flits = 167 (167 measured)
latency change    = 0.000563309
throughput change = 0.000607257
Class 0:
Packet latency average = 69.1104
	minimum = 12
	maximum = 401
Network latency average = 46.6148
	minimum = 12
	maximum = 178
Slowest packet = 11110
Flit latency average = 45.8312
	minimum = 11
	maximum = 173
Slowest flit = 53942
Fragmentation average = 0.666391
	minimum = 0
	maximum = 6
Injected packet rate average = 0.0175184
	minimum = 0.00940299 (at node 19)
	maximum = 0.0707761 (at node 57)
Accepted packet rate average = 0.0175161
	minimum = 0.00940299 (at node 49)
	maximum = 0.0708358 (at node 57)
Injected flit rate average = 0.0508577
	minimum = 0.0110597 (at node 49)
	maximum = 0.327716 (at node 57)
Accepted flit rate average= 0.0508615
	minimum = 0.0434478 (at node 16)
	maximum = 0.0849104 (at node 58)
Injected packet length average = 2.9031
Accepted packet length average = 2.9037
Total in-flight flits = 144 (144 measured)
latency change    = 0.000723308
throughput change = 0.000478804
Class 0:
Packet latency average = 69.1421
	minimum = 12
	maximum = 401
Network latency average = 46.6226
	minimum = 12
	maximum = 178
Slowest packet = 11110
Flit latency average = 45.8443
	minimum = 11
	maximum = 173
Slowest flit = 53942
Fragmentation average = 0.666382
	minimum = 0
	maximum = 6
Injected packet rate average = 0.0175211
	minimum = 0.00935294 (at node 19)
	maximum = 0.0708382 (at node 57)
Accepted packet rate average = 0.0175163
	minimum = 0.00935294 (at node 19)
	maximum = 0.0708529 (at node 57)
Injected flit rate average = 0.0508598
	minimum = 0.0111176 (at node 19)
	maximum = 0.328 (at node 57)
Accepted flit rate average= 0.0508511
	minimum = 0.0432353 (at node 19)
	maximum = 0.0851176 (at node 58)
Injected packet length average = 2.90277
Accepted packet length average = 2.90307
Total in-flight flits = 199 (199 measured)
latency change    = 0.000459032
throughput change = 0.000203947
Class 0:
Packet latency average = 69.1773
	minimum = 12
	maximum = 401
Network latency average = 46.6167
	minimum = 12
	maximum = 178
Slowest packet = 11110
Flit latency average = 45.8394
	minimum = 11
	maximum = 173
Slowest flit = 53942
Fragmentation average = 0.666757
	minimum = 0
	maximum = 6
Injected packet rate average = 0.0175242
	minimum = 0.00931884 (at node 19)
	maximum = 0.0709275 (at node 57)
Accepted packet rate average = 0.0175231
	minimum = 0.00933333 (at node 19)
	maximum = 0.0709855 (at node 57)
Injected flit rate average = 0.0508827
	minimum = 0.011058 (at node 19)
	maximum = 0.328362 (at node 57)
Accepted flit rate average= 0.0508897
	minimum = 0.0431884 (at node 19)
	maximum = 0.0851884 (at node 58)
Injected packet length average = 2.90356
Accepted packet length average = 2.90415
Total in-flight flits = 125 (125 measured)
latency change    = 0.000507907
throughput change = 0.000758822
Class 0:
Packet latency average = 69.2667
	minimum = 12
	maximum = 401
Network latency average = 46.6456
	minimum = 12
	maximum = 178
Slowest packet = 11110
Flit latency average = 45.8779
	minimum = 11
	maximum = 173
Slowest flit = 53942
Fragmentation average = 0.666628
	minimum = 0
	maximum = 6
Injected packet rate average = 0.0175301
	minimum = 0.00934286 (at node 19)
	maximum = 0.0709714 (at node 60)
Accepted packet rate average = 0.0175259
	minimum = 0.00934286 (at node 19)
	maximum = 0.0709286 (at node 57)
Injected flit rate average = 0.0508955
	minimum = 0.0110571 (at node 19)
	maximum = 0.327886 (at node 57)
Accepted flit rate average= 0.0508908
	minimum = 0.0432857 (at node 19)
	maximum = 0.0851143 (at node 58)
Injected packet length average = 2.90332
Accepted packet length average = 2.90375
Total in-flight flits = 183 (183 measured)
latency change    = 0.00129055
throughput change = 2.2185e-05
Class 0:
Packet latency average = 69.2971
	minimum = 12
	maximum = 401
Network latency average = 46.6491
	minimum = 12
	maximum = 178
Slowest packet = 11110
Flit latency average = 45.8802
	minimum = 11
	maximum = 173
Slowest flit = 53942
Fragmentation average = 0.666407
	minimum = 0
	maximum = 6
Injected packet rate average = 0.0175332
	minimum = 0.00942254 (at node 19)
	maximum = 0.0708873 (at node 57)
Accepted packet rate average = 0.0175315
	minimum = 0.00939437 (at node 19)
	maximum = 0.0710141 (at node 57)
Injected flit rate average = 0.0508961
	minimum = 0.0111972 (at node 19)
	maximum = 0.328169 (at node 57)
Accepted flit rate average= 0.0508974
	minimum = 0.0434225 (at node 19)
	maximum = 0.0853099 (at node 58)
Injected packet length average = 2.90284
Accepted packet length average = 2.9032
Total in-flight flits = 152 (152 measured)
latency change    = 0.00043917
throughput change = 0.000129652
Class 0:
Packet latency average = 69.2788
	minimum = 12
	maximum = 401
Network latency average = 46.6614
	minimum = 12
	maximum = 178
Slowest packet = 11110
Flit latency average = 45.8954
	minimum = 11
	maximum = 173
Slowest flit = 53942
Fragmentation average = 0.666468
	minimum = 0
	maximum = 6
Injected packet rate average = 0.0175228
	minimum = 0.00940278 (at node 19)
	maximum = 0.0709167 (at node 60)
Accepted packet rate average = 0.0175221
	minimum = 0.00940278 (at node 19)
	maximum = 0.071 (at node 60)
Injected flit rate average = 0.0508715
	minimum = 0.0111806 (at node 19)
	maximum = 0.328167 (at node 57)
Accepted flit rate average= 0.050878
	minimum = 0.0434583 (at node 19)
	maximum = 0.0853472 (at node 58)
Injected packet length average = 2.90316
Accepted packet length average = 2.90364
Total in-flight flits = 126 (126 measured)
latency change    = 0.000264824
throughput change = 0.000381481
Class 0:
Packet latency average = 69.2988
	minimum = 12
	maximum = 401
Network latency average = 46.6609
	minimum = 12
	maximum = 178
Slowest packet = 11110
Flit latency average = 45.8934
	minimum = 11
	maximum = 173
Slowest flit = 53942
Fragmentation average = 0.666985
	minimum = 0
	maximum = 6
Injected packet rate average = 0.0175171
	minimum = 0.00942466 (at node 19)
	maximum = 0.0710548 (at node 57)
Accepted packet rate average = 0.0175158
	minimum = 0.00941096 (at node 19)
	maximum = 0.0710548 (at node 57)
Injected flit rate average = 0.050872
	minimum = 0.0111781 (at node 19)
	maximum = 0.32911 (at node 57)
Accepted flit rate average= 0.0508729
	minimum = 0.0435479 (at node 19)
	maximum = 0.0851507 (at node 58)
Injected packet length average = 2.90413
Accepted packet length average = 2.90439
Total in-flight flits = 155 (155 measured)
latency change    = 0.000288738
throughput change = 0.000101795
Class 0:
Packet latency average = 69.2265
	minimum = 12
	maximum = 401
Network latency average = 46.6349
	minimum = 12
	maximum = 178
Slowest packet = 11110
Flit latency average = 45.8681
	minimum = 11
	maximum = 173
Slowest flit = 53942
Fragmentation average = 0.666852
	minimum = 0
	maximum = 6
Injected packet rate average = 0.0175049
	minimum = 0.00941892 (at node 19)
	maximum = 0.0709459 (at node 57)
Accepted packet rate average = 0.0175049
	minimum = 0.00943243 (at node 19)
	maximum = 0.0710405 (at node 57)
Injected flit rate average = 0.0508277
	minimum = 0.0111486 (at node 19)
	maximum = 0.32873 (at node 57)
Accepted flit rate average= 0.0508347
	minimum = 0.0437027 (at node 19)
	maximum = 0.0853649 (at node 58)
Injected packet length average = 2.90363
Accepted packet length average = 2.90403
Total in-flight flits = 123 (123 measured)
latency change    = 0.00104432
throughput change = 0.000751239
Class 0:
Packet latency average = 69.1905
	minimum = 12
	maximum = 401
Network latency average = 46.6296
	minimum = 12
	maximum = 178
Slowest packet = 11110
Flit latency average = 45.8526
	minimum = 11
	maximum = 173
Slowest flit = 53942
Fragmentation average = 0.66669
	minimum = 0
	maximum = 6
Injected packet rate average = 0.0175042
	minimum = 0.00938667 (at node 19)
	maximum = 0.0709733 (at node 57)
Accepted packet rate average = 0.0175006
	minimum = 0.0094 (at node 19)
	maximum = 0.0710533 (at node 57)
Injected flit rate average = 0.0508235
	minimum = 0.01112 (at node 19)
	maximum = 0.32868 (at node 57)
Accepted flit rate average= 0.0508192
	minimum = 0.0435333 (at node 19)
	maximum = 0.0854533 (at node 58)
Injected packet length average = 2.90351
Accepted packet length average = 2.90385
Total in-flight flits = 181 (181 measured)
latency change    = 0.000520221
throughput change = 0.000305081
Class 0:
Packet latency average = 69.1804
	minimum = 12
	maximum = 401
Network latency average = 46.6293
	minimum = 12
	maximum = 178
Slowest packet = 11110
Flit latency average = 45.8504
	minimum = 11
	maximum = 173
Slowest flit = 53942
Fragmentation average = 0.66698
	minimum = 0
	maximum = 6
Injected packet rate average = 0.0175053
	minimum = 0.00940789 (at node 19)
	maximum = 0.0711447 (at node 57)
Accepted packet rate average = 0.0175039
	minimum = 0.00940789 (at node 19)
	maximum = 0.0711316 (at node 57)
Injected flit rate average = 0.0508292
	minimum = 0.0111447 (at node 19)
	maximum = 0.329408 (at node 57)
Accepted flit rate average= 0.050831
	minimum = 0.0435658 (at node 19)
	maximum = 0.0856316 (at node 58)
Injected packet length average = 2.90364
Accepted packet length average = 2.90398
Total in-flight flits = 155 (155 measured)
latency change    = 0.00014513
throughput change = 0.000232862
Class 0:
Packet latency average = 69.1097
	minimum = 12
	maximum = 401
Network latency average = 46.6132
	minimum = 12
	maximum = 178
Slowest packet = 11110
Flit latency average = 45.8335
	minimum = 11
	maximum = 173
Slowest flit = 53942
Fragmentation average = 0.667053
	minimum = 0
	maximum = 6
Injected packet rate average = 0.0175051
	minimum = 0.00942857 (at node 19)
	maximum = 0.070974 (at node 57)
Accepted packet rate average = 0.0175022
	minimum = 0.00938961 (at node 19)
	maximum = 0.0709221 (at node 57)
Injected flit rate average = 0.0508204
	minimum = 0.0111429 (at node 19)
	maximum = 0.328714 (at node 57)
Accepted flit rate average= 0.0508194
	minimum = 0.0435195 (at node 19)
	maximum = 0.0856883 (at node 58)
Injected packet length average = 2.90318
Accepted packet length average = 2.9036
Total in-flight flits = 164 (164 measured)
latency change    = 0.00102312
throughput change = 0.000228337
Class 0:
Packet latency average = 69.1757
	minimum = 12
	maximum = 401
Network latency average = 46.6204
	minimum = 12
	maximum = 178
Slowest packet = 11110
Flit latency average = 45.8411
	minimum = 11
	maximum = 173
Slowest flit = 53942
Fragmentation average = 0.667098
	minimum = 0
	maximum = 6
Injected packet rate average = 0.0175136
	minimum = 0.00948718 (at node 19)
	maximum = 0.0708974 (at node 57)
Accepted packet rate average = 0.0175106
	minimum = 0.00947436 (at node 19)
	maximum = 0.0710256 (at node 57)
Injected flit rate average = 0.050849
	minimum = 0.0112821 (at node 19)
	maximum = 0.328526 (at node 57)
Accepted flit rate average= 0.0508462
	minimum = 0.0438333 (at node 19)
	maximum = 0.0856154 (at node 58)
Injected packet length average = 2.90339
Accepted packet length average = 2.90373
Total in-flight flits = 175 (175 measured)
latency change    = 0.000953762
throughput change = 0.000526185
Class 0:
Packet latency average = 69.2357
	minimum = 12
	maximum = 401
Network latency average = 46.6235
	minimum = 12
	maximum = 178
Slowest packet = 11110
Flit latency average = 45.8467
	minimum = 11
	maximum = 173
Slowest flit = 53942
Fragmentation average = 0.666512
	minimum = 0
	maximum = 6
Injected packet rate average = 0.0175354
	minimum = 0.00946835 (at node 19)
	maximum = 0.0709241 (at node 57)
Accepted packet rate average = 0.0175326
	minimum = 0.00946835 (at node 19)
	maximum = 0.070962 (at node 58)
Injected flit rate average = 0.0508952
	minimum = 0.0112405 (at node 19)
	maximum = 0.328494 (at node 57)
Accepted flit rate average= 0.0508934
	minimum = 0.0437975 (at node 19)
	maximum = 0.0858481 (at node 58)
Injected packet length average = 2.90242
Accepted packet length average = 2.90278
Total in-flight flits = 165 (165 measured)
latency change    = 0.000866498
throughput change = 0.000928218
Class 0:
Packet latency average = 69.2538
	minimum = 12
	maximum = 401
Network latency average = 46.632
	minimum = 12
	maximum = 178
Slowest packet = 11110
Flit latency average = 45.8518
	minimum = 11
	maximum = 173
Slowest flit = 53942
Fragmentation average = 0.666566
	minimum = 0
	maximum = 6
Injected packet rate average = 0.0175396
	minimum = 0.00945 (at node 19)
	maximum = 0.07085 (at node 57)
Accepted packet rate average = 0.0175365
	minimum = 0.00945 (at node 19)
	maximum = 0.070925 (at node 57)
Injected flit rate average = 0.0509135
	minimum = 0.011225 (at node 19)
	maximum = 0.32795 (at node 57)
Accepted flit rate average= 0.0509117
	minimum = 0.0437 (at node 19)
	maximum = 0.0855875 (at node 58)
Injected packet length average = 2.90276
Accepted packet length average = 2.90318
Total in-flight flits = 166 (166 measured)
latency change    = 0.000261107
throughput change = 0.000359932
Class 0:
Packet latency average = 69.2206
	minimum = 12
	maximum = 401
Network latency average = 46.6289
	minimum = 12
	maximum = 178
Slowest packet = 11110
Flit latency average = 45.8505
	minimum = 11
	maximum = 173
Slowest flit = 53942
Fragmentation average = 0.66681
	minimum = 0
	maximum = 6
Injected packet rate average = 0.0175224
	minimum = 0.00948148 (at node 19)
	maximum = 0.0709383 (at node 57)
Accepted packet rate average = 0.0175197
	minimum = 0.00940741 (at node 19)
	maximum = 0.071 (at node 57)
Injected flit rate average = 0.0508675
	minimum = 0.0112593 (at node 19)
	maximum = 0.328494 (at node 57)
Accepted flit rate average= 0.0508667
	minimum = 0.0435309 (at node 19)
	maximum = 0.0854074 (at node 58)
Injected packet length average = 2.903
Accepted packet length average = 2.9034
Total in-flight flits = 166 (166 measured)
latency change    = 0.000479112
throughput change = 0.000884931
Class 0:
Packet latency average = 69.1772
	minimum = 12
	maximum = 401
Network latency average = 46.6093
	minimum = 12
	maximum = 178
Slowest packet = 11110
Flit latency average = 45.8291
	minimum = 11
	maximum = 173
Slowest flit = 53942
Fragmentation average = 0.666873
	minimum = 0
	maximum = 6
Injected packet rate average = 0.0175219
	minimum = 0.00947561 (at node 19)
	maximum = 0.0708171 (at node 57)
Accepted packet rate average = 0.017521
	minimum = 0.00947561 (at node 19)
	maximum = 0.0707927 (at node 57)
Injected flit rate average = 0.050875
	minimum = 0.0112561 (at node 19)
	maximum = 0.327988 (at node 57)
Accepted flit rate average= 0.0508754
	minimum = 0.0438659 (at node 19)
	maximum = 0.0852561 (at node 58)
Injected packet length average = 2.90351
Accepted packet length average = 2.90369
Total in-flight flits = 156 (156 measured)
latency change    = 0.00062754
throughput change = 0.000170531
Class 0:
Packet latency average = 69.1136
	minimum = 12
	maximum = 401
Network latency average = 46.5947
	minimum = 12
	maximum = 178
Slowest packet = 11110
Flit latency average = 45.808
	minimum = 11
	maximum = 173
Slowest flit = 53942
Fragmentation average = 0.666627
	minimum = 0
	maximum = 6
Injected packet rate average = 0.0175034
	minimum = 0.00944578 (at node 19)
	maximum = 0.0706386 (at node 57)
Accepted packet rate average = 0.0175026
	minimum = 0.00945783 (at node 19)
	maximum = 0.0706506 (at node 57)
Injected flit rate average = 0.0508176
	minimum = 0.0112289 (at node 19)
	maximum = 0.327169 (at node 57)
Accepted flit rate average= 0.0508208
	minimum = 0.0437229 (at node 19)
	maximum = 0.0850964 (at node 58)
Injected packet length average = 2.9033
Accepted packet length average = 2.90361
Total in-flight flits = 139 (139 measured)
latency change    = 0.000920222
throughput change = 0.00107432
Class 0:
Packet latency average = 69.0886
	minimum = 12
	maximum = 401
Network latency average = 46.59
	minimum = 12
	maximum = 178
Slowest packet = 11110
Flit latency average = 45.8015
	minimum = 11
	maximum = 173
Slowest flit = 53942
Fragmentation average = 0.666454
	minimum = 0
	maximum = 6
Injected packet rate average = 0.0174996
	minimum = 0.00942857 (at node 19)
	maximum = 0.0707976 (at node 57)
Accepted packet rate average = 0.0174989
	minimum = 0.00942857 (at node 19)
	maximum = 0.0708571 (at node 57)
Injected flit rate average = 0.0508142
	minimum = 0.0112143 (at node 19)
	maximum = 0.327976 (at node 57)
Accepted flit rate average= 0.0508158
	minimum = 0.0435714 (at node 19)
	maximum = 0.0849643 (at node 58)
Injected packet length average = 2.90373
Accepted packet length average = 2.90395
Total in-flight flits = 149 (149 measured)
latency change    = 0.000361573
throughput change = 9.71138e-05
Class 0:
Packet latency average = 69.0904
	minimum = 12
	maximum = 401
Network latency average = 46.5955
	minimum = 12
	maximum = 178
Slowest packet = 11110
Flit latency average = 45.8043
	minimum = 11
	maximum = 173
Slowest flit = 53942
Fragmentation average = 0.666061
	minimum = 0
	maximum = 6
Injected packet rate average = 0.017511
	minimum = 0.00942353 (at node 19)
	maximum = 0.0707294 (at node 57)
Accepted packet rate average = 0.0175066
	minimum = 0.00942353 (at node 19)
	maximum = 0.0708118 (at node 57)
Injected flit rate average = 0.0508364
	minimum = 0.0111882 (at node 19)
	maximum = 0.327671 (at node 57)
Accepted flit rate average= 0.0508287
	minimum = 0.0435882 (at node 19)
	maximum = 0.0850824 (at node 58)
Injected packet length average = 2.90311
Accepted packet length average = 2.9034
Total in-flight flits = 201 (201 measured)
latency change    = 2.52414e-05
throughput change = 0.000252382
Class 0:
Packet latency average = 69.1308
	minimum = 12
	maximum = 401
Network latency average = 46.6077
	minimum = 12
	maximum = 178
Slowest packet = 11110
Flit latency average = 45.8155
	minimum = 11
	maximum = 173
Slowest flit = 53942
Fragmentation average = 0.66576
	minimum = 0
	maximum = 6
Injected packet rate average = 0.0175038
	minimum = 0.00940698 (at node 19)
	maximum = 0.0706977 (at node 57)
Accepted packet rate average = 0.0175027
	minimum = 0.00940698 (at node 19)
	maximum = 0.0706628 (at node 57)
Injected flit rate average = 0.0508185
	minimum = 0.0111977 (at node 19)
	maximum = 0.327663 (at node 57)
Accepted flit rate average= 0.0508178
	minimum = 0.0434767 (at node 19)
	maximum = 0.0849186 (at node 58)
Injected packet length average = 2.90328
Accepted packet length average = 2.90342
Total in-flight flits = 165 (165 measured)
latency change    = 0.000584166
throughput change = 0.000214641
Class 0:
Packet latency average = 69.0842
	minimum = 12
	maximum = 401
Network latency average = 46.5923
	minimum = 12
	maximum = 178
Slowest packet = 11110
Flit latency average = 45.8002
	minimum = 11
	maximum = 173
Slowest flit = 53942
Fragmentation average = 0.665451
	minimum = 0
	maximum = 6
Injected packet rate average = 0.0174914
	minimum = 0.00945977 (at node 19)
	maximum = 0.0706782 (at node 57)
Accepted packet rate average = 0.017488
	minimum = 0.00947126 (at node 19)
	maximum = 0.0707011 (at node 57)
Injected flit rate average = 0.0507757
	minimum = 0.0112299 (at node 19)
	maximum = 0.327598 (at node 57)
Accepted flit rate average= 0.050773
	minimum = 0.0436667 (at node 16)
	maximum = 0.085069 (at node 58)
Injected packet length average = 2.9029
Accepted packet length average = 2.90331
Total in-flight flits = 177 (177 measured)
latency change    = 0.000674108
throughput change = 0.000881973
Class 0:
Packet latency average = 69.0815
	minimum = 12
	maximum = 401
Network latency average = 46.6013
	minimum = 12
	maximum = 178
Slowest packet = 11110
Flit latency average = 45.8076
	minimum = 11
	maximum = 173
Slowest flit = 53942
Fragmentation average = 0.665563
	minimum = 0
	maximum = 6
Injected packet rate average = 0.0174924
	minimum = 0.00946591 (at node 19)
	maximum = 0.0705909 (at node 57)
Accepted packet rate average = 0.0174899
	minimum = 0.00946591 (at node 19)
	maximum = 0.0706477 (at node 57)
Injected flit rate average = 0.0507708
	minimum = 0.0112159 (at node 19)
	maximum = 0.327136 (at node 57)
Accepted flit rate average= 0.050771
	minimum = 0.0434773 (at node 16)
	maximum = 0.0853977 (at node 58)
Injected packet length average = 2.90245
Accepted packet length average = 2.90288
Total in-flight flits = 158 (158 measured)
latency change    = 3.85383e-05
throughput change = 4.01175e-05
Class 0:
Packet latency average = 69.1547
	minimum = 12
	maximum = 401
Network latency average = 46.6258
	minimum = 12
	maximum = 178
Slowest packet = 11110
Flit latency average = 45.8413
	minimum = 11
	maximum = 173
Slowest flit = 53942
Fragmentation average = 0.665673
	minimum = 0
	maximum = 6
Injected packet rate average = 0.0174954
	minimum = 0.00955056 (at node 16)
	maximum = 0.0705955 (at node 63)
Accepted packet rate average = 0.0174928
	minimum = 0.00950562 (at node 19)
	maximum = 0.070618 (at node 57)
Injected flit rate average = 0.0507811
	minimum = 0.0112247 (at node 49)
	maximum = 0.326551 (at node 57)
Accepted flit rate average= 0.0507827
	minimum = 0.0433371 (at node 16)
	maximum = 0.0852022 (at node 58)
Injected packet length average = 2.90253
Accepted packet length average = 2.90306
Total in-flight flits = 151 (151 measured)
latency change    = 0.00105761
throughput change = 0.000230449
Class 0:
Packet latency average = 69.1632
	minimum = 12
	maximum = 401
Network latency average = 46.6396
	minimum = 12
	maximum = 178
Slowest packet = 11110
Flit latency average = 45.8585
	minimum = 11
	maximum = 173
Slowest flit = 53942
Fragmentation average = 0.665889
	minimum = 0
	maximum = 6
Injected packet rate average = 0.0174944
	minimum = 0.00953333 (at node 19)
	maximum = 0.0706333 (at node 57)
Accepted packet rate average = 0.0174946
	minimum = 0.00954444 (at node 19)
	maximum = 0.0706556 (at node 57)
Injected flit rate average = 0.0507844
	minimum = 0.0112667 (at node 19)
	maximum = 0.327078 (at node 57)
Accepted flit rate average= 0.0507918
	minimum = 0.0434111 (at node 16)
	maximum = 0.0852111 (at node 58)
Injected packet length average = 2.90289
Accepted packet length average = 2.90328
Total in-flight flits = 118 (118 measured)
latency change    = 0.000123766
throughput change = 0.000180852
total_phase: 100 _sim_state: 1 converged: 90
Draining remaining packets ...
Time taken is 100074 cycles
====== Overall Traffic Statistics ======
====== Traffic class 0 ======
Packet latency average = 69.1617 (1 samples)
	minimum = 12 (1 samples)
	maximum = 401 (1 samples)
Network latency average = 46.6401 (1 samples)
	minimum = 12 (1 samples)
	maximum = 178 (1 samples)
Flit latency average = 45.8593 (1 samples)
	minimum = 11 (1 samples)
	maximum = 173 (1 samples)
Fragmentation average = 0.665836 (1 samples)
	minimum = 0 (1 samples)
	maximum = 6 (1 samples)
Injected packet rate average = 0.0174944 (1 samples)
	minimum = 0.00953333 (1 samples)
	maximum = 0.0706333 (1 samples)
Accepted packet rate average = 0.0174946 (1 samples)
	minimum = 0.00954444 (1 samples)
	maximum = 0.0706556 (1 samples)
Injected flit rate average = 0.0507844 (1 samples)
	minimum = 0.0112667 (1 samples)
	maximum = 0.327078 (1 samples)
Accepted flit rate average = 0.0507918 (1 samples)
	minimum = 0.0434111 (1 samples)
	maximum = 0.0852111 (1 samples)
Injected packet size average = 2.90289 (1 samples)
Accepted packet size average = 2.90328 (1 samples)
Hops average = 7.61798 (1 samples)
Total run time 35.5069
L = 2 K = 8.1 M = 2 N = 1
-----------------------------------------
DSENT Power Model
- OCN Power Summary
- Completion Time (cycle):  100074
- Flit Widths:              256
---
- Link Dynamic Power:       0.0558605
- Link Leakage Power:       0.00532526
---
- Buffer Read Power:        0.0337265
- Buffer Write Power:       0.0421793
- Buffer Dynamic Power:     0.0759058
- Buffer Leakage Power:     0.467924
---
- Switch Dynamic Power:     0.00726553
- Switch Leakage Power:     0.017778
---
- Crossbar Dynamic Power:   0.0270309
- Crossbar Leakage Power:   0.161964
---
- Clk Dynamic Power:        0.0405759
- Clk Static Power:         0.000486142
---
- NoC Power (Including links):
- Total Dynamic Power:      0.206639
- Total Leakage Power:      0.653477
- Total Power:              0.860116
- Leakage Portion:          75.9755%
---
- Routers Power (Excluding links):
- Total Dynamic Power:      0.150778
- Total Leakage Power:      0.648152
- Total Power:              0.79893
- Leakage Portion:          81.1275%
-----------------------------------------
